
root@COproject:/home/vboxuser/proj/gem5/m5out# cat stats.txt

---------- Begin Simulation Statistics ----------
sim_seconds                                  2.363595                       # Number of seconds simulated
sim_ticks                                2363594771000                       # Number of ticks simulated
final_tick                               2363594771000                       # Number of ticks from beginning of simulation (restored from checkpoints and never reset)
sim_freq                                 1000000000000                       # Frequency of simulated ticks
host_inst_rate                                1298332                       # Simulator instruction rate (inst/s)
host_op_rate                                  2080074                       # Simulator op (including micro ops) rate (op/s)
host_tick_rate                             3292850241                       # Simulator tick rate (ticks/s)
host_mem_usage                                 676748                       # Number of bytes of host memory used
host_seconds                                   717.80                       # Real time elapsed on the host
sim_insts                                   931937813                       # Number of instructions simulated
sim_ops                                    1493068858                       # Number of ops (including micro ops) simulated
system.voltage_domain.voltage                       1                       # Voltage in Volts
system.clk_domain.clock                          1000                       # Clock period in ticks
system.mem_ctrls.pwrStateResidencyTicks::UNDEFINED 2363594771000                       # Cumulative time (in ticks) in various power states
system.mem_ctrls.bytes_read::cpu.inst           47360                       # Number of bytes read from this memory
system.mem_ctrls.bytes_read::cpu.data        96886208                       # Number of bytes read from this memory
system.mem_ctrls.bytes_read::total           96933568                       # Number of bytes read from this memory
system.mem_ctrls.bytes_inst_read::cpu.inst        47360                       # Number of instructions bytes read from this memory
system.mem_ctrls.bytes_inst_read::total         47360                       # Number of instructions bytes read from this memory
system.mem_ctrls.bytes_written::writebacks      1084416                       # Number of bytes written to this memory
system.mem_ctrls.bytes_written::total         1084416                       # Number of bytes written to this memory
system.mem_ctrls.num_reads::cpu.inst              740                       # Number of read requests responded to by this memory
system.mem_ctrls.num_reads::cpu.data          1513847                       # Number of read requests responded to by this memory
system.mem_ctrls.num_reads::total             1514587                       # Number of read requests responded to by this memory
system.mem_ctrls.num_writes::writebacks         16944                       # Number of write requests responded to by this memory
system.mem_ctrls.num_writes::total              16944                       # Number of write requests responded to by this memory
system.mem_ctrls.bw_read::cpu.inst              20037                       # Total read bandwidth from this memory (bytes/s)
system.mem_ctrls.bw_read::cpu.data           40991040                       # Total read bandwidth from this memory (bytes/s)
system.mem_ctrls.bw_read::total              41011077                       # Total read bandwidth from this memory (bytes/s)
system.mem_ctrls.bw_inst_read::cpu.inst         20037                       # Instruction read bandwidth from this memory (bytes/s)
system.mem_ctrls.bw_inst_read::total            20037                       # Instruction read bandwidth from this memory (bytes/s)
system.mem_ctrls.bw_write::writebacks          458799                       # Write bandwidth from this memory (bytes/s)
system.mem_ctrls.bw_write::total               458799                       # Write bandwidth from this memory (bytes/s)
system.mem_ctrls.bw_total::writebacks          458799                       # Total bandwidth to/from this memory (bytes/s)
system.mem_ctrls.bw_total::cpu.inst             20037                       # Total bandwidth to/from this memory (bytes/s)
system.mem_ctrls.bw_total::cpu.data          40991040                       # Total bandwidth to/from this memory (bytes/s)
system.mem_ctrls.bw_total::total             41469877                       # Total bandwidth to/from this memory (bytes/s)
system.pwrStateResidencyTicks::UNDEFINED 2363594771000                       # Cumulative time (in ticks) in various power states
system.cpu_voltage_domain.voltage                   1                       # Voltage in Volts
system.cpu_clk_domain.clock                       500                       # Clock period in ticks
system.cpu.dtb.walker.pwrStateResidencyTicks::UNDEFINED 2363594771000                       # Cumulative time (in ticks) in various power states
system.cpu.dtb.rdAccesses                   382884777                       # TLB accesses on read requests
system.cpu.dtb.wrAccesses                    56350726                       # TLB accesses on write requests
system.cpu.dtb.rdMisses                       7936673                       # TLB misses on read requests
system.cpu.dtb.wrMisses                           277                       # TLB misses on write requests
system.cpu.apic_clk_domain.clock                 8000                       # Clock period in ticks
system.cpu.interrupts.pwrStateResidencyTicks::UNDEFINED 2363594771000                       # Cumulative time (in ticks) in various power states
system.cpu.itb.walker.pwrStateResidencyTicks::UNDEFINED 2363594771000                       # Cumulative time (in ticks) in various power states
system.cpu.itb.rdAccesses                           0                       # TLB accesses on read requests
system.cpu.itb.wrAccesses                  1341649887                       # TLB accesses on write requests
system.cpu.itb.rdMisses                             0                       # TLB misses on read requests
system.cpu.itb.wrMisses                            78                       # TLB misses on write requests
system.cpu.workload.numSyscalls                    25                       # Number of system calls
system.cpu.pwrStateResidencyTicks::ON    2363594771000                       # Cumulative time (in ticks) in various power states
system.cpu.numCycles                       4727189542                       # number of cpu cycles simulated
system.cpu.numWorkItemsStarted                      0                       # number of work items this cpu started
system.cpu.numWorkItemsCompleted                    0                       # number of work items this cpu completed
system.cpu.committedInsts                   931937813                       # Number of instructions committed
system.cpu.committedOps                    1493068858                       # Number of ops (including micro ops) committed
system.cpu.num_int_alu_accesses            1492560085                       # Number of integer alu accesses
system.cpu.num_fp_alu_accesses                   4324                       # Number of float alu accesses
system.cpu.num_vec_alu_accesses                     0                       # Number of vector alu accesses
system.cpu.num_func_calls                     1081154                       # number of times a function call or return occured
system.cpu.num_conditional_control_insts     29585123                       # number of instructions that are conditional controls
system.cpu.num_int_insts                   1492560085                       # number of integer instructions
system.cpu.num_fp_insts                          4324                       # number of float instructions
system.cpu.num_vec_insts                            0                       # number of vector instructions
system.cpu.num_int_register_reads          2936287767                       # number of times the integer registers were read
system.cpu.num_int_register_writes         1546170707                       # number of times the integer registers were written
system.cpu.num_fp_register_reads                 6422                       # number of times the floating registers were read
system.cpu.num_fp_register_writes                3209                       # number of times the floating registers were written
system.cpu.num_vec_register_reads                   0                       # number of times the vector registers were read
system.cpu.num_vec_register_writes                  0                       # number of times the vector registers were written
system.cpu.num_cc_register_reads            159292060                       # number of times the CC registers were read
system.cpu.num_cc_register_writes           523371034                       # number of times the CC registers were written
system.cpu.num_mem_refs                     439235495                       # number of memory refs
system.cpu.num_load_insts                   382884769                       # Number of load instructions
system.cpu.num_store_insts                   56350726                       # Number of store instructions
system.cpu.num_idle_cycles                          0                       # Number of idle cycles
system.cpu.num_busy_cycles                 4727189542                       # Number of busy cycles
system.cpu.not_idle_fraction                        1                       # Percentage of non-idle cycles
system.cpu.idle_fraction                            0                       # Percentage of idle cycles
system.cpu.Branches                          30937648                       # Number of branches fetched
system.cpu.op_class::No_OpClass                506519      0.03%      0.03% # Class of executed instruction
system.cpu.op_class::IntAlu                 915492245     61.32%     61.35% # Class of executed instruction
system.cpu.op_class::IntMult                135270015      9.06%     70.41% # Class of executed instruction
system.cpu.op_class::IntDiv                   2561987      0.17%     70.58% # Class of executed instruction
system.cpu.op_class::FloatAdd                     132      0.00%     70.58% # Class of executed instruction
system.cpu.op_class::FloatCmp                       0      0.00%     70.58% # Class of executed instruction
system.cpu.op_class::FloatCvt                       0      0.00%     70.58% # Class of executed instruction
system.cpu.op_class::FloatMult                      0      0.00%     70.58% # Class of executed instruction
system.cpu.op_class::FloatMultAcc                   0      0.00%     70.58% # Class of executed instruction
system.cpu.op_class::FloatDiv                       0      0.00%     70.58% # Class of executed instruction
system.cpu.op_class::FloatMisc                      0      0.00%     70.58% # Class of executed instruction
system.cpu.op_class::FloatSqrt                      0      0.00%     70.58% # Class of executed instruction
system.cpu.op_class::SimdAdd                      348      0.00%     70.58% # Class of executed instruction
system.cpu.op_class::SimdAddAcc                     0      0.00%     70.58% # Class of executed instruction
system.cpu.op_class::SimdAlu                      682      0.00%     70.58% # Class of executed instruction
system.cpu.op_class::SimdCmp                        0      0.00%     70.58% # Class of executed instruction
system.cpu.op_class::SimdCvt                      776      0.00%     70.58% # Class of executed instruction
system.cpu.op_class::SimdMisc                     530      0.00%     70.58% # Class of executed instruction
system.cpu.op_class::SimdMult                       0      0.00%     70.58% # Class of executed instruction
system.cpu.op_class::SimdMultAcc                    0      0.00%     70.58% # Class of executed instruction
system.cpu.op_class::SimdShift                    129      0.00%     70.58% # Class of executed instruction
system.cpu.op_class::SimdShiftAcc                   0      0.00%     70.58% # Class of executed instruction
system.cpu.op_class::SimdSqrt                       0      0.00%     70.58% # Class of executed instruction
system.cpu.op_class::SimdFloatAdd                   0      0.00%     70.58% # Class of executed instruction
system.cpu.op_class::SimdFloatAlu                   0      0.00%     70.58% # Class of executed instruction
system.cpu.op_class::SimdFloatCmp                   0      0.00%     70.58% # Class of executed instruction
system.cpu.op_class::SimdFloatCvt                   0      0.00%     70.58% # Class of executed instruction
system.cpu.op_class::SimdFloatDiv                   0      0.00%     70.58% # Class of executed instruction
system.cpu.op_class::SimdFloatMisc                  0      0.00%     70.58% # Class of executed instruction
system.cpu.op_class::SimdFloatMult                  0      0.00%     70.58% # Class of executed instruction
system.cpu.op_class::SimdFloatMultAcc               0      0.00%     70.58% # Class of executed instruction
system.cpu.op_class::SimdFloatSqrt                  0      0.00%     70.58% # Class of executed instruction
system.cpu.op_class::MemRead                382883791     25.64%     96.23% # Class of executed instruction
system.cpu.op_class::MemWrite                56350036      3.77%    100.00% # Class of executed instruction
system.cpu.op_class::FloatMemRead                 978      0.00%    100.00% # Class of executed instruction
system.cpu.op_class::FloatMemWrite                690      0.00%    100.00% # Class of executed instruction
system.cpu.op_class::IprAccess                      0      0.00%    100.00% # Class of executed instruction
system.cpu.op_class::InstPrefetch                   0      0.00%    100.00% # Class of executed instruction
system.cpu.op_class::total                 1493068858                       # Class of executed instruction
system.cpu.dcache.tags.pwrStateResidencyTicks::UNDEFINED 2363594771000                       # Cumulative time (in ticks) in various power states
system.cpu.dcache.tags.tagsinuse           511.978078                       # Cycle average of tags in use
system.cpu.dcache.tags.total_refs           439235503                       # Total number of references to valid blocks.
system.cpu.dcache.tags.sampled_refs           3129632                       # Sample count of references to valid blocks.
system.cpu.dcache.tags.avg_refs            140.347333                       # Average number of references to valid blocks.
system.cpu.dcache.tags.warmup_cycle            759000                       # Cycle when the warmup percentage was hit.
system.cpu.dcache.tags.occ_blocks::cpu.data   511.978078                       # Average occupied blocks per requestor
system.cpu.dcache.tags.occ_percent::cpu.data     0.999957                       # Average percentage of cache occupancy
system.cpu.dcache.tags.occ_percent::total     0.999957                       # Average percentage of cache occupancy
system.cpu.dcache.tags.occ_task_id_blocks::1024          512                       # Occupied blocks per task id
system.cpu.dcache.tags.age_task_id_blocks_1024::0           20                       # Occupied blocks per task id
system.cpu.dcache.tags.age_task_id_blocks_1024::1           72                       # Occupied blocks per task id
system.cpu.dcache.tags.age_task_id_blocks_1024::2          405                       # Occupied blocks per task id
system.cpu.dcache.tags.age_task_id_blocks_1024::3           14                       # Occupied blocks per task id
system.cpu.dcache.tags.age_task_id_blocks_1024::4            1                       # Occupied blocks per task id
system.cpu.dcache.tags.occ_task_id_percent::1024            1                       # Percentage of cache occupancy per task id
system.cpu.dcache.tags.tag_accesses         881600638                       # Number of tag accesses
system.cpu.dcache.tags.data_accesses        881600638                       # Number of data accesses
system.cpu.dcache.pwrStateResidencyTicks::UNDEFINED 2363594771000                       # Cumulative time (in ticks) in various power states
system.cpu.dcache.ReadReq_hits::cpu.data    379775907                       # number of ReadReq hits
system.cpu.dcache.ReadReq_hits::total       379775907                       # number of ReadReq hits
system.cpu.dcache.WriteReq_hits::cpu.data     56329955                       # number of WriteReq hits
system.cpu.dcache.WriteReq_hits::total       56329955                       # number of WriteReq hits
system.cpu.dcache.demand_hits::cpu.data     436105862                       # number of demand (read+write) hits
system.cpu.dcache.demand_hits::total        436105862                       # number of demand (read+write) hits
system.cpu.dcache.overall_hits::cpu.data    436105862                       # number of overall hits
system.cpu.dcache.overall_hits::total       436105862                       # number of overall hits
system.cpu.dcache.ReadReq_misses::cpu.data      3108870                       # number of ReadReq misses
system.cpu.dcache.ReadReq_misses::total       3108870                       # number of ReadReq misses
system.cpu.dcache.WriteReq_misses::cpu.data        20771                       # number of WriteReq misses
system.cpu.dcache.WriteReq_misses::total        20771                       # number of WriteReq misses
system.cpu.dcache.demand_misses::cpu.data      3129641                       # number of demand (read+write) misses
system.cpu.dcache.demand_misses::total        3129641                       # number of demand (read+write) misses
system.cpu.dcache.overall_misses::cpu.data      3129641                       # number of overall misses
system.cpu.dcache.overall_misses::total       3129641                       # number of overall misses
system.cpu.dcache.ReadReq_miss_latency::cpu.data 580716358000                       # number of ReadReq miss cycles
system.cpu.dcache.ReadReq_miss_latency::total 580716358000                       # number of ReadReq miss cycles
system.cpu.dcache.WriteReq_miss_latency::cpu.data   5009731000                       # number of WriteReq miss cycles
system.cpu.dcache.WriteReq_miss_latency::total   5009731000                       # number of WriteReq miss cycles
system.cpu.dcache.demand_miss_latency::cpu.data 585726089000                       # number of demand (read+write) miss cycles
system.cpu.dcache.demand_miss_latency::total 585726089000                       # number of demand (read+write) miss cycles
system.cpu.dcache.overall_miss_latency::cpu.data 585726089000                       # number of overall miss cycles
system.cpu.dcache.overall_miss_latency::total 585726089000                       # number of overall miss cycles
system.cpu.dcache.ReadReq_accesses::cpu.data    382884777                       # number of ReadReq accesses(hits+misses)
system.cpu.dcache.ReadReq_accesses::total    382884777                       # number of ReadReq accesses(hits+misses)
system.cpu.dcache.WriteReq_accesses::cpu.data     56350726                       # number of WriteReq accesses(hits+misses)
system.cpu.dcache.WriteReq_accesses::total     56350726                       # number of WriteReq accesses(hits+misses)
system.cpu.dcache.demand_accesses::cpu.data    439235503                       # number of demand (read+write) accesses
system.cpu.dcache.demand_accesses::total    439235503                       # number of demand (read+write) accesses
system.cpu.dcache.overall_accesses::cpu.data    439235503                       # number of overall (read+write) accesses
system.cpu.dcache.overall_accesses::total    439235503                       # number of overall (read+write) accesses
system.cpu.dcache.ReadReq_miss_rate::cpu.data     0.008120                       # miss rate for ReadReq accesses
system.cpu.dcache.ReadReq_miss_rate::total     0.008120                       # miss rate for ReadReq accesses
system.cpu.dcache.WriteReq_miss_rate::cpu.data     0.000369                       # miss rate for WriteReq accesses
system.cpu.dcache.WriteReq_miss_rate::total     0.000369                       # miss rate for WriteReq accesses
system.cpu.dcache.demand_miss_rate::cpu.data     0.007125                       # miss rate for demand accesses
system.cpu.dcache.demand_miss_rate::total     0.007125                       # miss rate for demand accesses
system.cpu.dcache.overall_miss_rate::cpu.data     0.007125                       # miss rate for overall accesses
system.cpu.dcache.overall_miss_rate::total     0.007125                       # miss rate for overall accesses
system.cpu.dcache.ReadReq_avg_miss_latency::cpu.data 186793.387308                       # average ReadReq miss latency
system.cpu.dcache.ReadReq_avg_miss_latency::total 186793.387308                       # average ReadReq miss latency
system.cpu.dcache.WriteReq_avg_miss_latency::cpu.data 241188.724664                       # average WriteReq miss latency
system.cpu.dcache.WriteReq_avg_miss_latency::total 241188.724664                       # average WriteReq miss latency
system.cpu.dcache.demand_avg_miss_latency::cpu.data 187154.401735                       # average overall miss latency
system.cpu.dcache.demand_avg_miss_latency::total 187154.401735                       # average overall miss latency
system.cpu.dcache.overall_avg_miss_latency::cpu.data 187154.401735                       # average overall miss latency
system.cpu.dcache.overall_avg_miss_latency::total 187154.401735                       # average overall miss latency
system.cpu.dcache.blocked_cycles::no_mshrs            0                       # number of cycles access was blocked
system.cpu.dcache.blocked_cycles::no_targets            0                       # number of cycles access was blocked
system.cpu.dcache.blocked::no_mshrs                 0                       # number of cycles access was blocked
system.cpu.dcache.blocked::no_targets               0                       # number of cycles access was blocked
system.cpu.dcache.avg_blocked_cycles::no_mshrs          nan                       # average number of cycles each access was blocked
system.cpu.dcache.avg_blocked_cycles::no_targets          nan                       # average number of cycles each access was blocked
system.cpu.dcache.writebacks::writebacks        60789                       # number of writebacks
system.cpu.dcache.writebacks::total             60789                       # number of writebacks
system.cpu.dcache.ReadReq_mshr_misses::cpu.data      3108870                       # number of ReadReq MSHR misses
system.cpu.dcache.ReadReq_mshr_misses::total      3108870                       # number of ReadReq MSHR misses
system.cpu.dcache.WriteReq_mshr_misses::cpu.data        20771                       # number of WriteReq MSHR misses
system.cpu.dcache.WriteReq_mshr_misses::total        20771                       # number of WriteReq MSHR misses
system.cpu.dcache.demand_mshr_misses::cpu.data      3129641                       # number of demand (read+write) MSHR misses
system.cpu.dcache.demand_mshr_misses::total      3129641                       # number of demand (read+write) MSHR misses
system.cpu.dcache.overall_mshr_misses::cpu.data      3129641                       # number of overall MSHR misses
system.cpu.dcache.overall_mshr_misses::total      3129641                       # number of overall MSHR misses
system.cpu.dcache.ReadReq_mshr_miss_latency::cpu.data 577607488000                       # number of ReadReq MSHR miss cycles
system.cpu.dcache.ReadReq_mshr_miss_latency::total 577607488000                       # number of ReadReq MSHR miss cycles
system.cpu.dcache.WriteReq_mshr_miss_latency::cpu.data   4988960000                       # number of WriteReq MSHR miss cycles
system.cpu.dcache.WriteReq_mshr_miss_latency::total   4988960000                       # number of WriteReq MSHR miss cycles
system.cpu.dcache.demand_mshr_miss_latency::cpu.data 582596448000                       # number of demand (read+write) MSHR miss cycles
system.cpu.dcache.demand_mshr_miss_latency::total 582596448000                       # number of demand (read+write) MSHR miss cycles
system.cpu.dcache.overall_mshr_miss_latency::cpu.data 582596448000                       # number of overall MSHR miss cycles
system.cpu.dcache.overall_mshr_miss_latency::total 582596448000                       # number of overall MSHR miss cycles
system.cpu.dcache.ReadReq_mshr_miss_rate::cpu.data     0.008120                       # mshr miss rate for ReadReq accesses
system.cpu.dcache.ReadReq_mshr_miss_rate::total     0.008120                       # mshr miss rate for ReadReq accesses
system.cpu.dcache.WriteReq_mshr_miss_rate::cpu.data     0.000369                       # mshr miss rate for WriteReq accesses
system.cpu.dcache.WriteReq_mshr_miss_rate::total     0.000369                       # mshr miss rate for WriteReq accesses
system.cpu.dcache.demand_mshr_miss_rate::cpu.data     0.007125                       # mshr miss rate for demand accesses
system.cpu.dcache.demand_mshr_miss_rate::total     0.007125                       # mshr miss rate for demand accesses
system.cpu.dcache.overall_mshr_miss_rate::cpu.data     0.007125                       # mshr miss rate for overall accesses
system.cpu.dcache.overall_mshr_miss_rate::total     0.007125                       # mshr miss rate for overall accesses
system.cpu.dcache.ReadReq_avg_mshr_miss_latency::cpu.data 185793.387308                       # average ReadReq mshr miss latency
system.cpu.dcache.ReadReq_avg_mshr_miss_latency::total 185793.387308                       # average ReadReq mshr miss latency
system.cpu.dcache.WriteReq_avg_mshr_miss_latency::cpu.data 240188.724664                       # average WriteReq mshr miss latency
system.cpu.dcache.WriteReq_avg_mshr_miss_latency::total 240188.724664                       # average WriteReq mshr miss latency
system.cpu.dcache.demand_avg_mshr_miss_latency::cpu.data 186154.401735                       # average overall mshr miss latency
system.cpu.dcache.demand_avg_mshr_miss_latency::total 186154.401735                       # average overall mshr miss latency
system.cpu.dcache.overall_avg_mshr_miss_latency::cpu.data 186154.401735                       # average overall mshr miss latency
system.cpu.dcache.overall_avg_mshr_miss_latency::total 186154.401735                       # average overall mshr miss latency
system.cpu.dcache.replacements                3129120                       # number of replacements
system.cpu.dtb_walker_cache.tags.pwrStateResidencyTicks::UNDEFINED 2363594771000                       # Cumulative time (in ticks) in various power states
system.cpu.dtb_walker_cache.tags.tagsinuse            0                       # Cycle average of tags in use
system.cpu.dtb_walker_cache.tags.total_refs            0                       # Total number of references to valid blocks.
system.cpu.dtb_walker_cache.tags.sampled_refs            0                       # Sample count of references to valid blocks.
system.cpu.dtb_walker_cache.tags.avg_refs          nan                       # Average number of references to valid blocks.
system.cpu.dtb_walker_cache.tags.warmup_cycle            0                       # Cycle when the warmup percentage was hit.
system.cpu.dtb_walker_cache.tags.tag_accesses            0                       # Number of tag accesses
system.cpu.dtb_walker_cache.tags.data_accesses            0                       # Number of data accesses
system.cpu.dtb_walker_cache.pwrStateResidencyTicks::UNDEFINED 2363594771000                       # Cumulative time (in ticks) in various power states
system.cpu.dtb_walker_cache.blocked_cycles::no_mshrs            0                       # number of cycles access was blocked
system.cpu.dtb_walker_cache.blocked_cycles::no_targets            0                       # number of cycles access was blocked
system.cpu.dtb_walker_cache.blocked::no_mshrs            0                       # number of cycles access was blocked
system.cpu.dtb_walker_cache.blocked::no_targets            0                       # number of cycles access was blocked
system.cpu.dtb_walker_cache.avg_blocked_cycles::no_mshrs          nan                       # average number of cycles each access was blocked
system.cpu.dtb_walker_cache.avg_blocked_cycles::no_targets          nan                       # average number of cycles each access was blocked
system.cpu.dtb_walker_cache.replacements            0                       # number of replacements
system.cpu.icache.tags.pwrStateResidencyTicks::UNDEFINED 2363594771000                       # Cumulative time (in ticks) in various power states
system.cpu.icache.tags.tagsinuse           440.980131                       # Cycle average of tags in use
system.cpu.icache.tags.total_refs          1341649887                       # Total number of references to valid blocks.
system.cpu.icache.tags.sampled_refs               757                       # Sample count of references to valid blocks.
system.cpu.icache.tags.avg_refs          1772324.817701                       # Average number of references to valid blocks.
system.cpu.icache.tags.warmup_cycle            439000                       # Cycle when the warmup percentage was hit.
system.cpu.icache.tags.occ_blocks::cpu.inst   440.980131                       # Average occupied blocks per requestor
system.cpu.icache.tags.occ_percent::cpu.inst     0.861289                       # Average percentage of cache occupancy
system.cpu.icache.tags.occ_percent::total     0.861289                       # Average percentage of cache occupancy
system.cpu.icache.tags.occ_task_id_blocks::1024          451                       # Occupied blocks per task id
system.cpu.icache.tags.age_task_id_blocks_1024::0           27                       # Occupied blocks per task id
system.cpu.icache.tags.age_task_id_blocks_1024::1           33                       # Occupied blocks per task id
system.cpu.icache.tags.age_task_id_blocks_1024::4          391                       # Occupied blocks per task id
system.cpu.icache.tags.occ_task_id_percent::1024     0.880859                       # Percentage of cache occupancy per task id
system.cpu.icache.tags.tag_accesses        2683300531                       # Number of tag accesses
system.cpu.icache.tags.data_accesses       2683300531                       # Number of data accesses
system.cpu.icache.pwrStateResidencyTicks::UNDEFINED 2363594771000                       # Cumulative time (in ticks) in various power states
system.cpu.icache.ReadReq_hits::cpu.inst   1341649130                       # number of ReadReq hits
system.cpu.icache.ReadReq_hits::total      1341649130                       # number of ReadReq hits
system.cpu.icache.demand_hits::cpu.inst    1341649130                       # number of demand (read+write) hits
system.cpu.icache.demand_hits::total       1341649130                       # number of demand (read+write) hits
system.cpu.icache.overall_hits::cpu.inst   1341649130                       # number of overall hits
system.cpu.icache.overall_hits::total      1341649130                       # number of overall hits
system.cpu.icache.ReadReq_misses::cpu.inst          757                       # number of ReadReq misses
system.cpu.icache.ReadReq_misses::total           757                       # number of ReadReq misses
system.cpu.icache.demand_misses::cpu.inst          757                       # number of demand (read+write) misses
system.cpu.icache.demand_misses::total            757                       # number of demand (read+write) misses
system.cpu.icache.overall_misses::cpu.inst          757                       # number of overall misses
system.cpu.icache.overall_misses::total           757                       # number of overall misses
system.cpu.icache.ReadReq_miss_latency::cpu.inst    114009000                       # number of ReadReq miss cycles
system.cpu.icache.ReadReq_miss_latency::total    114009000                       # number of ReadReq miss cycles
system.cpu.icache.demand_miss_latency::cpu.inst    114009000                       # number of demand (read+write) miss cycles
system.cpu.icache.demand_miss_latency::total    114009000                       # number of demand (read+write) miss cycles
system.cpu.icache.overall_miss_latency::cpu.inst    114009000                       # number of overall miss cycles
system.cpu.icache.overall_miss_latency::total    114009000                       # number of overall miss cycles
system.cpu.icache.ReadReq_accesses::cpu.inst   1341649887                       # number of ReadReq accesses(hits+misses)
system.cpu.icache.ReadReq_accesses::total   1341649887                       # number of ReadReq accesses(hits+misses)
system.cpu.icache.demand_accesses::cpu.inst   1341649887                       # number of demand (read+write) accesses
system.cpu.icache.demand_accesses::total   1341649887                       # number of demand (read+write) accesses
system.cpu.icache.overall_accesses::cpu.inst   1341649887                       # number of overall (read+write) accesses
system.cpu.icache.overall_accesses::total   1341649887                       # number of overall (read+write) accesses
system.cpu.icache.ReadReq_miss_rate::cpu.inst     0.000001                       # miss rate for ReadReq accesses
system.cpu.icache.ReadReq_miss_rate::total     0.000001                       # miss rate for ReadReq accesses
system.cpu.icache.demand_miss_rate::cpu.inst     0.000001                       # miss rate for demand accesses
system.cpu.icache.demand_miss_rate::total     0.000001                       # miss rate for demand accesses
system.cpu.icache.overall_miss_rate::cpu.inst     0.000001                       # miss rate for overall accesses
system.cpu.icache.overall_miss_rate::total     0.000001                       # miss rate for overall accesses
system.cpu.icache.ReadReq_avg_miss_latency::cpu.inst 150606.340819                       # average ReadReq miss latency
system.cpu.icache.ReadReq_avg_miss_latency::total 150606.340819                       # average ReadReq miss latency
system.cpu.icache.demand_avg_miss_latency::cpu.inst 150606.340819                       # average overall miss latency
system.cpu.icache.demand_avg_miss_latency::total 150606.340819                       # average overall miss latency
system.cpu.icache.overall_avg_miss_latency::cpu.inst 150606.340819                       # average overall miss latency
system.cpu.icache.overall_avg_miss_latency::total 150606.340819                       # average overall miss latency
system.cpu.icache.blocked_cycles::no_mshrs            0                       # number of cycles access was blocked
system.cpu.icache.blocked_cycles::no_targets            0                       # number of cycles access was blocked
system.cpu.icache.blocked::no_mshrs                 0                       # number of cycles access was blocked
system.cpu.icache.blocked::no_targets               0                       # number of cycles access was blocked
system.cpu.icache.avg_blocked_cycles::no_mshrs          nan                       # average number of cycles each access was blocked
system.cpu.icache.avg_blocked_cycles::no_targets          nan                       # average number of cycles each access was blocked
system.cpu.icache.writebacks::writebacks          306                       # number of writebacks
system.cpu.icache.writebacks::total               306                       # number of writebacks
system.cpu.icache.ReadReq_mshr_misses::cpu.inst          757                       # number of ReadReq MSHR misses
system.cpu.icache.ReadReq_mshr_misses::total          757                       # number of ReadReq MSHR misses
system.cpu.icache.demand_mshr_misses::cpu.inst          757                       # number of demand (read+write) MSHR misses
system.cpu.icache.demand_mshr_misses::total          757                       # number of demand (read+write) MSHR misses
system.cpu.icache.overall_mshr_misses::cpu.inst          757                       # number of overall MSHR misses
system.cpu.icache.overall_mshr_misses::total          757                       # number of overall MSHR misses
system.cpu.icache.ReadReq_mshr_miss_latency::cpu.inst    113252000                       # number of ReadReq MSHR miss cycles
system.cpu.icache.ReadReq_mshr_miss_latency::total    113252000                       # number of ReadReq MSHR miss cycles
system.cpu.icache.demand_mshr_miss_latency::cpu.inst    113252000                       # number of demand (read+write) MSHR miss cycles
system.cpu.icache.demand_mshr_miss_latency::total    113252000                       # number of demand (read+write) MSHR miss cycles
system.cpu.icache.overall_mshr_miss_latency::cpu.inst    113252000                       # number of overall MSHR miss cycles
system.cpu.icache.overall_mshr_miss_latency::total    113252000                       # number of overall MSHR miss cycles
system.cpu.icache.ReadReq_mshr_miss_rate::cpu.inst     0.000001                       # mshr miss rate for ReadReq accesses
system.cpu.icache.ReadReq_mshr_miss_rate::total     0.000001                       # mshr miss rate for ReadReq accesses
system.cpu.icache.demand_mshr_miss_rate::cpu.inst     0.000001                       # mshr miss rate for demand accesses
system.cpu.icache.demand_mshr_miss_rate::total     0.000001                       # mshr miss rate for demand accesses
system.cpu.icache.overall_mshr_miss_rate::cpu.inst     0.000001                       # mshr miss rate for overall accesses
system.cpu.icache.overall_mshr_miss_rate::total     0.000001                       # mshr miss rate for overall accesses
system.cpu.icache.ReadReq_avg_mshr_miss_latency::cpu.inst 149606.340819                       # average ReadReq mshr miss latency
system.cpu.icache.ReadReq_avg_mshr_miss_latency::total 149606.340819                       # average ReadReq mshr miss latency
system.cpu.icache.demand_avg_mshr_miss_latency::cpu.inst 149606.340819                       # average overall mshr miss latency
system.cpu.icache.demand_avg_mshr_miss_latency::total 149606.340819                       # average overall mshr miss latency
system.cpu.icache.overall_avg_mshr_miss_latency::cpu.inst 149606.340819                       # average overall mshr miss latency
system.cpu.icache.overall_avg_mshr_miss_latency::total 149606.340819                       # average overall mshr miss latency
system.cpu.icache.replacements                    306                       # number of replacements
system.cpu.itb_walker_cache.tags.pwrStateResidencyTicks::UNDEFINED 2363594771000                       # Cumulative time (in ticks) in various power states
system.cpu.itb_walker_cache.tags.tagsinuse            0                       # Cycle average of tags in use
system.cpu.itb_walker_cache.tags.total_refs            0                       # Total number of references to valid blocks.
system.cpu.itb_walker_cache.tags.sampled_refs            0                       # Sample count of references to valid blocks.
system.cpu.itb_walker_cache.tags.avg_refs          nan                       # Average number of references to valid blocks.
system.cpu.itb_walker_cache.tags.warmup_cycle            0                       # Cycle when the warmup percentage was hit.
system.cpu.itb_walker_cache.tags.tag_accesses            0                       # Number of tag accesses
system.cpu.itb_walker_cache.tags.data_accesses            0                       # Number of data accesses
system.cpu.itb_walker_cache.pwrStateResidencyTicks::UNDEFINED 2363594771000                       # Cumulative time (in ticks) in various power states
system.cpu.itb_walker_cache.blocked_cycles::no_mshrs            0                       # number of cycles access was blocked
system.cpu.itb_walker_cache.blocked_cycles::no_targets            0                       # number of cycles access was blocked
system.cpu.itb_walker_cache.blocked::no_mshrs            0                       # number of cycles access was blocked
system.cpu.itb_walker_cache.blocked::no_targets            0                       # number of cycles access was blocked
system.cpu.itb_walker_cache.avg_blocked_cycles::no_mshrs          nan                       # average number of cycles each access was blocked
system.cpu.itb_walker_cache.avg_blocked_cycles::no_targets          nan                       # average number of cycles each access was blocked
system.cpu.itb_walker_cache.replacements            0                       # number of replacements
system.l2.tags.pwrStateResidencyTicks::UNDEFINED 2363594771000                       # Cumulative time (in ticks) in various power states
system.l2.tags.tagsinuse                  2047.818457                       # Cycle average of tags in use
system.l2.tags.total_refs                     6259795                       # Total number of references to valid blocks.
system.l2.tags.sampled_refs                   1712507                       # Sample count of references to valid blocks.
system.l2.tags.avg_refs                      3.655340                       # Average number of references to valid blocks.
system.l2.tags.warmup_cycle                    428500                       # Cycle when the warmup percentage was hit.
system.l2.tags.occ_blocks::writebacks        0.148631                       # Average occupied blocks per requestor
system.l2.tags.occ_blocks::cpu.inst          0.362010                       # Average occupied blocks per requestor
system.l2.tags.occ_blocks::cpu.data       2047.307816                       # Average occupied blocks per requestor
system.l2.tags.occ_percent::writebacks       0.000073                       # Average percentage of cache occupancy
system.l2.tags.occ_percent::cpu.inst         0.000177                       # Average percentage of cache occupancy
system.l2.tags.occ_percent::cpu.data         0.999662                       # Average percentage of cache occupancy
system.l2.tags.occ_percent::total            0.999911                       # Average percentage of cache occupancy
system.l2.tags.occ_task_id_blocks::1024          2048                       # Occupied blocks per task id
system.l2.tags.age_task_id_blocks_1024::0           72                       # Occupied blocks per task id
system.l2.tags.age_task_id_blocks_1024::1          121                       # Occupied blocks per task id
system.l2.tags.age_task_id_blocks_1024::2          651                       # Occupied blocks per task id
system.l2.tags.age_task_id_blocks_1024::3         1203                       # Occupied blocks per task id
system.l2.tags.age_task_id_blocks_1024::4            1                       # Occupied blocks per task id
system.l2.tags.occ_task_id_percent::1024            1                       # Percentage of cache occupancy per task id
system.l2.tags.tag_accesses                  51791091                       # Number of tag accesses
system.l2.tags.data_accesses                 51791091                       # Number of data accesses
system.l2.pwrStateResidencyTicks::UNDEFINED 2363594771000                       # Cumulative time (in ticks) in various power states
system.l2.WritebackDirty_hits::writebacks        60789                       # number of WritebackDirty hits
system.l2.WritebackDirty_hits::total            60789                       # number of WritebackDirty hits
system.l2.WritebackClean_hits::writebacks          306                       # number of WritebackClean hits
system.l2.WritebackClean_hits::total              306                       # number of WritebackClean hits
system.l2.UpgradeReq_hits::cpu.data                 9                       # number of UpgradeReq hits
system.l2.UpgradeReq_hits::total                    9                       # number of UpgradeReq hits
system.l2.ReadExReq_hits::cpu.data               3402                       # number of ReadExReq hits
system.l2.ReadExReq_hits::total                  3402                       # number of ReadExReq hits
system.l2.ReadCleanReq_hits::cpu.inst              16                       # number of ReadCleanReq hits
system.l2.ReadCleanReq_hits::total                 16                       # number of ReadCleanReq hits
system.l2.ReadSharedReq_hits::cpu.data        1414643                       # number of ReadSharedReq hits
system.l2.ReadSharedReq_hits::total           1414643                       # number of ReadSharedReq hits
system.l2.demand_hits::cpu.inst                    16                       # number of demand (read+write) hits
system.l2.demand_hits::cpu.data               1418045                       # number of demand (read+write) hits
system.l2.demand_hits::total                  1418061                       # number of demand (read+write) hits
system.l2.overall_hits::cpu.inst                   16                       # number of overall hits
system.l2.overall_hits::cpu.data              1418045                       # number of overall hits
system.l2.overall_hits::total                 1418061                       # number of overall hits
system.l2.ReadExReq_misses::cpu.data            17360                       # number of ReadExReq misses
system.l2.ReadExReq_misses::total               17360                       # number of ReadExReq misses
system.l2.ReadCleanReq_misses::cpu.inst           741                       # number of ReadCleanReq misses
system.l2.ReadCleanReq_misses::total              741                       # number of ReadCleanReq misses
system.l2.ReadSharedReq_misses::cpu.data      1694227                       # number of ReadSharedReq misses
system.l2.ReadSharedReq_misses::total         1694227                       # number of ReadSharedReq misses
system.l2.demand_misses::cpu.inst                 741                       # number of demand (read+write) misses
system.l2.demand_misses::cpu.data             1711587                       # number of demand (read+write) misses
system.l2.demand_misses::total                1712328                       # number of demand (read+write) misses
system.l2.overall_misses::cpu.inst                741                       # number of overall misses
system.l2.overall_misses::cpu.data            1711587                       # number of overall misses
system.l2.overall_misses::total               1712328                       # number of overall misses
system.l2.ReadExReq_miss_latency::cpu.data   4921986000                       # number of ReadExReq miss cycles
system.l2.ReadExReq_miss_latency::total    4921986000                       # number of ReadExReq miss cycles
system.l2.ReadCleanReq_miss_latency::cpu.inst    111945000                       # number of ReadCleanReq miss cycles
system.l2.ReadCleanReq_miss_latency::total    111945000                       # number of ReadCleanReq miss cycles
system.l2.ReadSharedReq_miss_latency::cpu.data 558090423000                       # number of ReadSharedReq miss cycles
system.l2.ReadSharedReq_miss_latency::total 558090423000                       # number of ReadSharedReq miss cycles
system.l2.demand_miss_latency::cpu.inst     111945000                       # number of demand (read+write) miss cycles
system.l2.demand_miss_latency::cpu.data  563012409000                       # number of demand (read+write) miss cycles
system.l2.demand_miss_latency::total     563124354000                       # number of demand (read+write) miss cycles
system.l2.overall_miss_latency::cpu.inst    111945000                       # number of overall miss cycles
system.l2.overall_miss_latency::cpu.data 563012409000                       # number of overall miss cycles
system.l2.overall_miss_latency::total    563124354000                       # number of overall miss cycles
system.l2.WritebackDirty_accesses::writebacks        60789                       # number of WritebackDirty accesses(hits+misses)
system.l2.WritebackDirty_accesses::total        60789                       # number of WritebackDirty accesses(hits+misses)
system.l2.WritebackClean_accesses::writebacks          306                       # number of WritebackClean accesses(hits+misses)
system.l2.WritebackClean_accesses::total          306                       # number of WritebackClean accesses(hits+misses)
system.l2.UpgradeReq_accesses::cpu.data             9                       # number of UpgradeReq accesses(hits+misses)
system.l2.UpgradeReq_accesses::total                9                       # number of UpgradeReq accesses(hits+misses)
system.l2.ReadExReq_accesses::cpu.data          20762                       # number of ReadExReq accesses(hits+misses)
system.l2.ReadExReq_accesses::total             20762                       # number of ReadExReq accesses(hits+misses)
system.l2.ReadCleanReq_accesses::cpu.inst          757                       # number of ReadCleanReq accesses(hits+misses)
system.l2.ReadCleanReq_accesses::total            757                       # number of ReadCleanReq accesses(hits+misses)
system.l2.ReadSharedReq_accesses::cpu.data      3108870                       # number of ReadSharedReq accesses(hits+misses)
system.l2.ReadSharedReq_accesses::total       3108870                       # number of ReadSharedReq accesses(hits+misses)
system.l2.demand_accesses::cpu.inst               757                       # number of demand (read+write) accesses
system.l2.demand_accesses::cpu.data           3129632                       # number of demand (read+write) accesses
system.l2.demand_accesses::total              3130389                       # number of demand (read+write) accesses
system.l2.overall_accesses::cpu.inst              757                       # number of overall (read+write) accesses
system.l2.overall_accesses::cpu.data          3129632                       # number of overall (read+write) accesses
system.l2.overall_accesses::total             3130389                       # number of overall (read+write) accesses
system.l2.ReadExReq_miss_rate::cpu.data      0.836143                       # miss rate for ReadExReq accesses
system.l2.ReadExReq_miss_rate::total         0.836143                       # miss rate for ReadExReq accesses
system.l2.ReadCleanReq_miss_rate::cpu.inst     0.978864                       # miss rate for ReadCleanReq accesses
system.l2.ReadCleanReq_miss_rate::total      0.978864                       # miss rate for ReadCleanReq accesses
system.l2.ReadSharedReq_miss_rate::cpu.data     0.544966                       # miss rate for ReadSharedReq accesses
system.l2.ReadSharedReq_miss_rate::total     0.544966                       # miss rate for ReadSharedReq accesses
system.l2.demand_miss_rate::cpu.inst         0.978864                       # miss rate for demand accesses
system.l2.demand_miss_rate::cpu.data         0.546897                       # miss rate for demand accesses
system.l2.demand_miss_rate::total            0.547002                       # miss rate for demand accesses
system.l2.overall_miss_rate::cpu.inst        0.978864                       # miss rate for overall accesses
system.l2.overall_miss_rate::cpu.data        0.546897                       # miss rate for overall accesses
system.l2.overall_miss_rate::total           0.547002                       # miss rate for overall accesses
system.l2.ReadExReq_avg_miss_latency::cpu.data 283524.539171                       # average ReadExReq miss latency
system.l2.ReadExReq_avg_miss_latency::total 283524.539171                       # average ReadExReq miss latency
system.l2.ReadCleanReq_avg_miss_latency::cpu.inst 151072.874494                       # average ReadCleanReq miss latency
system.l2.ReadCleanReq_avg_miss_latency::total 151072.874494                       # average ReadCleanReq miss latency
system.l2.ReadSharedReq_avg_miss_latency::cpu.data 329407.111916                       # average ReadSharedReq miss latency
system.l2.ReadSharedReq_avg_miss_latency::total 329407.111916                       # average ReadSharedReq miss latency
system.l2.demand_avg_miss_latency::cpu.inst 151072.874494                       # average overall miss latency
system.l2.demand_avg_miss_latency::cpu.data 328941.741787                       # average overall miss latency
system.l2.demand_avg_miss_latency::total 328864.770067                       # average overall miss latency
system.l2.overall_avg_miss_latency::cpu.inst 151072.874494                       # average overall miss latency
system.l2.overall_avg_miss_latency::cpu.data 328941.741787                       # average overall miss latency
system.l2.overall_avg_miss_latency::total 328864.770067                       # average overall miss latency
system.l2.blocked_cycles::no_mshrs                  0                       # number of cycles access was blocked
system.l2.blocked_cycles::no_targets                0                       # number of cycles access was blocked
system.l2.blocked::no_mshrs                         0                       # number of cycles access was blocked
system.l2.blocked::no_targets                       0                       # number of cycles access was blocked
system.l2.avg_blocked_cycles::no_mshrs            nan                       # average number of cycles each access was blocked
system.l2.avg_blocked_cycles::no_targets          nan                       # average number of cycles each access was blocked
system.l2.writebacks::writebacks                97498                       # number of writebacks
system.l2.writebacks::total                     97498                       # number of writebacks
system.l2.CleanEvict_mshr_misses::writebacks           28                       # number of CleanEvict MSHR misses
system.l2.CleanEvict_mshr_misses::total            28                       # number of CleanEvict MSHR misses
system.l2.ReadExReq_mshr_misses::cpu.data        17360                       # number of ReadExReq MSHR misses
system.l2.ReadExReq_mshr_misses::total          17360                       # number of ReadExReq MSHR misses
system.l2.ReadCleanReq_mshr_misses::cpu.inst          741                       # number of ReadCleanReq MSHR misses
system.l2.ReadCleanReq_mshr_misses::total          741                       # number of ReadCleanReq MSHR misses
system.l2.ReadSharedReq_mshr_misses::cpu.data      1694227                       # number of ReadSharedReq MSHR misses
system.l2.ReadSharedReq_mshr_misses::total      1694227                       # number of ReadSharedReq MSHR misses
system.l2.demand_mshr_misses::cpu.inst            741                       # number of demand (read+write) MSHR misses
system.l2.demand_mshr_misses::cpu.data        1711587                       # number of demand (read+write) MSHR misses
system.l2.demand_mshr_misses::total           1712328                       # number of demand (read+write) MSHR misses
system.l2.overall_mshr_misses::cpu.inst           741                       # number of overall MSHR misses
system.l2.overall_mshr_misses::cpu.data       1711587                       # number of overall MSHR misses
system.l2.overall_mshr_misses::total          1712328                       # number of overall MSHR misses
system.l2.ReadExReq_mshr_miss_latency::cpu.data   4748386000                       # number of ReadExReq MSHR miss cycles
system.l2.ReadExReq_mshr_miss_latency::total   4748386000                       # number of ReadExReq MSHR miss cycles
system.l2.ReadCleanReq_mshr_miss_latency::cpu.inst    104535000                       # number of ReadCleanReq MSHR miss cycles
system.l2.ReadCleanReq_mshr_miss_latency::total    104535000                       # number of ReadCleanReq MSHR miss cycles
system.l2.ReadSharedReq_mshr_miss_latency::cpu.data 541148153000                       # number of ReadSharedReq MSHR miss cycles
system.l2.ReadSharedReq_mshr_miss_latency::total 541148153000                       # number of ReadSharedReq MSHR miss cycles
system.l2.demand_mshr_miss_latency::cpu.inst    104535000                       # number of demand (read+write) MSHR miss cycles
system.l2.demand_mshr_miss_latency::cpu.data 545896539000                       # number of demand (read+write) MSHR miss cycles
system.l2.demand_mshr_miss_latency::total 546001074000                       # number of demand (read+write) MSHR miss cycles
system.l2.overall_mshr_miss_latency::cpu.inst    104535000                       # number of overall MSHR miss cycles
system.l2.overall_mshr_miss_latency::cpu.data 545896539000                       # number of overall MSHR miss cycles
system.l2.overall_mshr_miss_latency::total 546001074000                       # number of overall MSHR miss cycles
system.l2.CleanEvict_mshr_miss_rate::writebacks          inf                       # mshr miss rate for CleanEvict accesses
system.l2.CleanEvict_mshr_miss_rate::total          inf                       # mshr miss rate for CleanEvict accesses
system.l2.ReadExReq_mshr_miss_rate::cpu.data     0.836143                       # mshr miss rate for ReadExReq accesses
system.l2.ReadExReq_mshr_miss_rate::total     0.836143                       # mshr miss rate for ReadExReq accesses
system.l2.ReadCleanReq_mshr_miss_rate::cpu.inst     0.978864                       # mshr miss rate for ReadCleanReq accesses
system.l2.ReadCleanReq_mshr_miss_rate::total     0.978864                       # mshr miss rate for ReadCleanReq accesses
system.l2.ReadSharedReq_mshr_miss_rate::cpu.data     0.544966                       # mshr miss rate for ReadSharedReq accesses
system.l2.ReadSharedReq_mshr_miss_rate::total     0.544966                       # mshr miss rate for ReadSharedReq accesses
system.l2.demand_mshr_miss_rate::cpu.inst     0.978864                       # mshr miss rate for demand accesses
system.l2.demand_mshr_miss_rate::cpu.data     0.546897                       # mshr miss rate for demand accesses
system.l2.demand_mshr_miss_rate::total       0.547002                       # mshr miss rate for demand accesses
system.l2.overall_mshr_miss_rate::cpu.inst     0.978864                       # mshr miss rate for overall accesses
system.l2.overall_mshr_miss_rate::cpu.data     0.546897                       # mshr miss rate for overall accesses
system.l2.overall_mshr_miss_rate::total      0.547002                       # mshr miss rate for overall accesses
system.l2.ReadExReq_avg_mshr_miss_latency::cpu.data 273524.539171                       # average ReadExReq mshr miss latency
system.l2.ReadExReq_avg_mshr_miss_latency::total 273524.539171                       # average ReadExReq mshr miss latency
system.l2.ReadCleanReq_avg_mshr_miss_latency::cpu.inst 141072.874494                       # average ReadCleanReq mshr miss latency
system.l2.ReadCleanReq_avg_mshr_miss_latency::total 141072.874494                       # average ReadCleanReq mshr miss latency
system.l2.ReadSharedReq_avg_mshr_miss_latency::cpu.data 319407.111916                       # average ReadSharedReq mshr miss latency
system.l2.ReadSharedReq_avg_mshr_miss_latency::total 319407.111916                       # average ReadSharedReq mshr miss latency
system.l2.demand_avg_mshr_miss_latency::cpu.inst 141072.874494                       # average overall mshr miss latency
system.l2.demand_avg_mshr_miss_latency::cpu.data 318941.741787                       # average overall mshr miss latency
system.l2.demand_avg_mshr_miss_latency::total 318864.770067                       # average overall mshr miss latency
system.l2.overall_avg_mshr_miss_latency::cpu.inst 141072.874494                       # average overall mshr miss latency
system.l2.overall_avg_mshr_miss_latency::cpu.data 318941.741787                       # average overall mshr miss latency
system.l2.overall_avg_mshr_miss_latency::total 318864.770067                       # average overall mshr miss latency
system.l2.replacements                        1710459                       # number of replacements
system.l3.tags.pwrStateResidencyTicks::UNDEFINED 2363594771000                       # Cumulative time (in ticks) in various power states
system.l3.tags.tagsinuse                  2047.744586                       # Cycle average of tags in use
system.l3.tags.total_refs                     1928057                       # Total number of references to valid blocks.
system.l3.tags.sampled_refs                   1531808                       # Sample count of references to valid blocks.
system.l3.tags.avg_refs                      1.258681                       # Average number of references to valid blocks.
system.l3.tags.warmup_cycle                    418000                       # Cycle when the warmup percentage was hit.
system.l3.tags.occ_blocks::writebacks      284.750515                       # Average occupied blocks per requestor
system.l3.tags.occ_blocks::cpu.inst         33.390523                       # Average occupied blocks per requestor
system.l3.tags.occ_blocks::cpu.data       1729.603549                       # Average occupied blocks per requestor
system.l3.tags.occ_percent::writebacks       0.139038                       # Average percentage of cache occupancy
system.l3.tags.occ_percent::cpu.inst         0.016304                       # Average percentage of cache occupancy
system.l3.tags.occ_percent::cpu.data         0.844533                       # Average percentage of cache occupancy
system.l3.tags.occ_percent::total            0.999875                       # Average percentage of cache occupancy
system.l3.tags.occ_task_id_blocks::1024          2048                       # Occupied blocks per task id
system.l3.tags.age_task_id_blocks_1024::0           45                       # Occupied blocks per task id
system.l3.tags.age_task_id_blocks_1024::1           79                       # Occupied blocks per task id
system.l3.tags.age_task_id_blocks_1024::2          441                       # Occupied blocks per task id
system.l3.tags.age_task_id_blocks_1024::3          307                       # Occupied blocks per task id
system.l3.tags.age_task_id_blocks_1024::4         1176                       # Occupied blocks per task id
system.l3.tags.occ_task_id_percent::1024            1                       # Percentage of cache occupancy per task id
system.l3.tags.tag_accesses                  15220672                       # Number of tag accesses
system.l3.tags.data_accesses                 15220672                       # Number of data accesses
system.l3.pwrStateResidencyTicks::UNDEFINED 2363594771000                       # Cumulative time (in ticks) in various power states
system.l3.WritebackDirty_hits::writebacks        97498                       # number of WritebackDirty hits
system.l3.WritebackDirty_hits::total            97498                       # number of WritebackDirty hits
system.l3.ReadExReq_hits::cpu.data                 20                       # number of ReadExReq hits
system.l3.ReadExReq_hits::total                    20                       # number of ReadExReq hits
system.l3.ReadSharedReq_hits::cpu.inst              1                       # number of ReadSharedReq hits
system.l3.ReadSharedReq_hits::cpu.data         197720                       # number of ReadSharedReq hits
system.l3.ReadSharedReq_hits::total            197721                       # number of ReadSharedReq hits
system.l3.demand_hits::cpu.inst                     1                       # number of demand (read+write) hits
system.l3.demand_hits::cpu.data                197740                       # number of demand (read+write) hits
system.l3.demand_hits::total                   197741                       # number of demand (read+write) hits
system.l3.overall_hits::cpu.inst                    1                       # number of overall hits
system.l3.overall_hits::cpu.data               197740                       # number of overall hits
system.l3.overall_hits::total                  197741                       # number of overall hits
system.l3.ReadExReq_misses::cpu.data            17340                       # number of ReadExReq misses
system.l3.ReadExReq_misses::total               17340                       # number of ReadExReq misses
system.l3.ReadSharedReq_misses::cpu.inst          740                       # number of ReadSharedReq misses
system.l3.ReadSharedReq_misses::cpu.data      1496507                       # number of ReadSharedReq misses
system.l3.ReadSharedReq_misses::total         1497247                       # number of ReadSharedReq misses
system.l3.demand_misses::cpu.inst                 740                       # number of demand (read+write) misses
system.l3.demand_misses::cpu.data             1513847                       # number of demand (read+write) misses
system.l3.demand_misses::total                1514587                       # number of demand (read+write) misses
system.l3.overall_misses::cpu.inst                740                       # number of overall misses
system.l3.overall_misses::cpu.data            1513847                       # number of overall misses
system.l3.overall_misses::total               1514587                       # number of overall misses
system.l3.ReadExReq_miss_latency::cpu.data   4557216000                       # number of ReadExReq miss cycles
system.l3.ReadExReq_miss_latency::total    4557216000                       # number of ReadExReq miss cycles
system.l3.ReadSharedReq_miss_latency::cpu.inst     96373500                       # number of ReadSharedReq miss cycles
system.l3.ReadSharedReq_miss_latency::cpu.data 520432137500                       # number of ReadSharedReq miss cycles
system.l3.ReadSharedReq_miss_latency::total 520528511000                       # number of ReadSharedReq miss cycles
system.l3.demand_miss_latency::cpu.inst      96373500                       # number of demand (read+write) miss cycles
system.l3.demand_miss_latency::cpu.data  524989353500                       # number of demand (read+write) miss cycles
system.l3.demand_miss_latency::total     525085727000                       # number of demand (read+write) miss cycles
system.l3.overall_miss_latency::cpu.inst     96373500                       # number of overall miss cycles
system.l3.overall_miss_latency::cpu.data 524989353500                       # number of overall miss cycles
system.l3.overall_miss_latency::total    525085727000                       # number of overall miss cycles
system.l3.WritebackDirty_accesses::writebacks        97498                       # number of WritebackDirty accesses(hits+misses)
system.l3.WritebackDirty_accesses::total        97498                       # number of WritebackDirty accesses(hits+misses)
system.l3.ReadExReq_accesses::cpu.data          17360                       # number of ReadExReq accesses(hits+misses)
system.l3.ReadExReq_accesses::total             17360                       # number of ReadExReq accesses(hits+misses)
system.l3.ReadSharedReq_accesses::cpu.inst          741                       # number of ReadSharedReq accesses(hits+misses)
system.l3.ReadSharedReq_accesses::cpu.data      1694227                       # number of ReadSharedReq accesses(hits+misses)
system.l3.ReadSharedReq_accesses::total       1694968                       # number of ReadSharedReq accesses(hits+misses)
system.l3.demand_accesses::cpu.inst               741                       # number of demand (read+write) accesses
system.l3.demand_accesses::cpu.data           1711587                       # number of demand (read+write) accesses
system.l3.demand_accesses::total              1712328                       # number of demand (read+write) accesses
system.l3.overall_accesses::cpu.inst              741                       # number of overall (read+write) accesses
system.l3.overall_accesses::cpu.data          1711587                       # number of overall (read+write) accesses
system.l3.overall_accesses::total             1712328                       # number of overall (read+write) accesses
system.l3.ReadExReq_miss_rate::cpu.data      0.998848                       # miss rate for ReadExReq accesses
system.l3.ReadExReq_miss_rate::total         0.998848                       # miss rate for ReadExReq accesses
system.l3.ReadSharedReq_miss_rate::cpu.inst     0.998650                       # miss rate for ReadSharedReq accesses
system.l3.ReadSharedReq_miss_rate::cpu.data     0.883298                       # miss rate for ReadSharedReq accesses
system.l3.ReadSharedReq_miss_rate::total     0.883348                       # miss rate for ReadSharedReq accesses
system.l3.demand_miss_rate::cpu.inst         0.998650                       # miss rate for demand accesses
system.l3.demand_miss_rate::cpu.data         0.884470                       # miss rate for demand accesses
system.l3.demand_miss_rate::total            0.884519                       # miss rate for demand accesses
system.l3.overall_miss_rate::cpu.inst        0.998650                       # miss rate for overall accesses
system.l3.overall_miss_rate::cpu.data        0.884470                       # miss rate for overall accesses
system.l3.overall_miss_rate::total           0.884519                       # miss rate for overall accesses
system.l3.ReadExReq_avg_miss_latency::cpu.data 262815.224913                       # average ReadExReq miss latency
system.l3.ReadExReq_avg_miss_latency::total 262815.224913                       # average ReadExReq miss latency
system.l3.ReadSharedReq_avg_miss_latency::cpu.inst 130234.459459                       # average ReadSharedReq miss latency
system.l3.ReadSharedReq_avg_miss_latency::cpu.data 347764.586133                       # average ReadSharedReq miss latency
system.l3.ReadSharedReq_avg_miss_latency::total 347657.073950                       # average ReadSharedReq miss latency
system.l3.demand_avg_miss_latency::cpu.inst 130234.459459                       # average overall miss latency
system.l3.demand_avg_miss_latency::cpu.data 346791.553902                       # average overall miss latency
system.l3.demand_avg_miss_latency::total 346685.747996                       # average overall miss latency
system.l3.overall_avg_miss_latency::cpu.inst 130234.459459                       # average overall miss latency
system.l3.overall_avg_miss_latency::cpu.data 346791.553902                       # average overall miss latency
system.l3.overall_avg_miss_latency::total 346685.747996                       # average overall miss latency
system.l3.blocked_cycles::no_mshrs                  0                       # number of cycles access was blocked
system.l3.blocked_cycles::no_targets                0                       # number of cycles access was blocked
system.l3.blocked::no_mshrs                         0                       # number of cycles access was blocked
system.l3.blocked::no_targets                       0                       # number of cycles access was blocked
system.l3.avg_blocked_cycles::no_mshrs            nan                       # average number of cycles each access was blocked
system.l3.avg_blocked_cycles::no_targets          nan                       # average number of cycles each access was blocked
system.l3.writebacks::writebacks                16944                       # number of writebacks
system.l3.writebacks::total                     16944                       # number of writebacks
system.l3.CleanEvict_mshr_misses::writebacks      1494159                       # number of CleanEvict MSHR misses
system.l3.CleanEvict_mshr_misses::total       1494159                       # number of CleanEvict MSHR misses
system.l3.ReadExReq_mshr_misses::cpu.data        17340                       # number of ReadExReq MSHR misses
system.l3.ReadExReq_mshr_misses::total          17340                       # number of ReadExReq MSHR misses
system.l3.ReadSharedReq_mshr_misses::cpu.inst          740                       # number of ReadSharedReq MSHR misses
system.l3.ReadSharedReq_mshr_misses::cpu.data      1496507                       # number of ReadSharedReq MSHR misses
system.l3.ReadSharedReq_mshr_misses::total      1497247                       # number of ReadSharedReq MSHR misses
system.l3.demand_mshr_misses::cpu.inst            740                       # number of demand (read+write) MSHR misses
system.l3.demand_mshr_misses::cpu.data        1513847                       # number of demand (read+write) MSHR misses
system.l3.demand_mshr_misses::total           1514587                       # number of demand (read+write) MSHR misses
system.l3.overall_mshr_misses::cpu.inst           740                       # number of overall MSHR misses
system.l3.overall_mshr_misses::cpu.data       1513847                       # number of overall MSHR misses
system.l3.overall_mshr_misses::total          1514587                       # number of overall MSHR misses
system.l3.ReadExReq_mshr_miss_latency::cpu.data   4383816000                       # number of ReadExReq MSHR miss cycles
system.l3.ReadExReq_mshr_miss_latency::total   4383816000                       # number of ReadExReq MSHR miss cycles
system.l3.ReadSharedReq_mshr_miss_latency::cpu.inst     88973500                       # number of ReadSharedReq MSHR miss cycles
system.l3.ReadSharedReq_mshr_miss_latency::cpu.data 505467067500                       # number of ReadSharedReq MSHR miss cycles
system.l3.ReadSharedReq_mshr_miss_latency::total 505556041000                       # number of ReadSharedReq MSHR miss cycles
system.l3.demand_mshr_miss_latency::cpu.inst     88973500                       # number of demand (read+write) MSHR miss cycles
system.l3.demand_mshr_miss_latency::cpu.data 509850883500                       # number of demand (read+write) MSHR miss cycles
system.l3.demand_mshr_miss_latency::total 509939857000                       # number of demand (read+write) MSHR miss cycles
system.l3.overall_mshr_miss_latency::cpu.inst     88973500                       # number of overall MSHR miss cycles
system.l3.overall_mshr_miss_latency::cpu.data 509850883500                       # number of overall MSHR miss cycles
system.l3.overall_mshr_miss_latency::total 509939857000                       # number of overall MSHR miss cycles
system.l3.CleanEvict_mshr_miss_rate::writebacks          inf                       # mshr miss rate for CleanEvict accesses
system.l3.CleanEvict_mshr_miss_rate::total          inf                       # mshr miss rate for CleanEvict accesses
system.l3.ReadExReq_mshr_miss_rate::cpu.data     0.998848                       # mshr miss rate for ReadExReq accesses
system.l3.ReadExReq_mshr_miss_rate::total     0.998848                       # mshr miss rate for ReadExReq accesses
system.l3.ReadSharedReq_mshr_miss_rate::cpu.inst     0.998650                       # mshr miss rate for ReadSharedReq accesses
system.l3.ReadSharedReq_mshr_miss_rate::cpu.data     0.883298                       # mshr miss rate for ReadSharedReq accesses
system.l3.ReadSharedReq_mshr_miss_rate::total     0.883348                       # mshr miss rate for ReadSharedReq accesses
system.l3.demand_mshr_miss_rate::cpu.inst     0.998650                       # mshr miss rate for demand accesses
system.l3.demand_mshr_miss_rate::cpu.data     0.884470                       # mshr miss rate for demand accesses
system.l3.demand_mshr_miss_rate::total       0.884519                       # mshr miss rate for demand accesses
system.l3.overall_mshr_miss_rate::cpu.inst     0.998650                       # mshr miss rate for overall accesses
system.l3.overall_mshr_miss_rate::cpu.data     0.884470                       # mshr miss rate for overall accesses
system.l3.overall_mshr_miss_rate::total      0.884519                       # mshr miss rate for overall accesses
system.l3.ReadExReq_avg_mshr_miss_latency::cpu.data 252815.224913                       # average ReadExReq mshr miss latency
system.l3.ReadExReq_avg_mshr_miss_latency::total 252815.224913                       # average ReadExReq mshr miss latency
system.l3.ReadSharedReq_avg_mshr_miss_latency::cpu.inst 120234.459459                       # average ReadSharedReq mshr miss latency
system.l3.ReadSharedReq_avg_mshr_miss_latency::cpu.data 337764.586133                       # average ReadSharedReq mshr miss latency
system.l3.ReadSharedReq_avg_mshr_miss_latency::total 337657.073950                       # average ReadSharedReq mshr miss latency
system.l3.demand_avg_mshr_miss_latency::cpu.inst 120234.459459                       # average overall mshr miss latency
system.l3.demand_avg_mshr_miss_latency::cpu.data 336791.553902                       # average overall mshr miss latency
system.l3.demand_avg_mshr_miss_latency::total 336685.747996                       # average overall mshr miss latency
system.l3.overall_avg_mshr_miss_latency::cpu.inst 120234.459459                       # average overall mshr miss latency
system.l3.overall_avg_mshr_miss_latency::cpu.data 336791.553902                       # average overall mshr miss latency
system.l3.overall_avg_mshr_miss_latency::total 336685.747996                       # average overall mshr miss latency
system.l3.replacements                        1529760                       # number of replacements
system.membus.snoop_filter.tot_requests       3026190                       # Total number of requests made to the snoop filter.
system.membus.snoop_filter.hit_single_requests      1511603                       # Number of requests hitting in the snoop filter with a single holder of the requested data.
system.membus.snoop_filter.hit_multi_requests            0                       # Number of requests hitting in the snoop filter with multiple (>1) holders of the requested data.
system.membus.snoop_filter.tot_snoops               0                       # Total number of snoops made to the snoop filter.
system.membus.snoop_filter.hit_single_snoops            0                       # Number of snoops hitting in the snoop filter with a single holder of the requested data.
system.membus.snoop_filter.hit_multi_snoops            0                       # Number of snoops hitting in the snoop filter with multiple (>1) holders of the requested data.
system.membus.pwrStateResidencyTicks::UNDEFINED 2363594771000                       # Cumulative time (in ticks) in various power states
system.membus.trans_dist::ReadResp            1497247                       # Transaction distribution
system.membus.trans_dist::WritebackDirty        16944                       # Transaction distribution
system.membus.trans_dist::CleanEvict          1494240                       # Transaction distribution
system.membus.trans_dist::ReadExReq             17340                       # Transaction distribution
system.membus.trans_dist::ReadExResp            17340                       # Transaction distribution
system.membus.trans_dist::ReadSharedReq       1497247                       # Transaction distribution
system.membus.pkt_count_system.l3.mem_side::system.mem_ctrls.port      4540358                       # Packet count per connected master and slave (bytes)
system.membus.pkt_count_system.l3.mem_side::total      4540358                       # Packet count per connected master and slave (bytes)
system.membus.pkt_count::total                4540358                       # Packet count per connected master and slave (bytes)
system.membus.pkt_size_system.l3.mem_side::system.mem_ctrls.port     98017984                       # Cumulative packet size per connected master and slave (bytes)
system.membus.pkt_size_system.l3.mem_side::total     98017984                       # Cumulative packet size per connected master and slave (bytes)
system.membus.pkt_size::total                98017984                       # Cumulative packet size per connected master and slave (bytes)
system.membus.snoops                                0                       # Total snoops (count)
system.membus.snoopTraffic                          0                       # Total snoop traffic (bytes)
system.membus.snoop_fanout::samples           1514587                       # Request fanout histogram
system.membus.snoop_fanout::mean                    0                       # Request fanout histogram
system.membus.snoop_fanout::stdev                   0                       # Request fanout histogram
system.membus.snoop_fanout::underflows              0      0.00%      0.00% # Request fanout histogram
system.membus.snoop_fanout::0                 1514587    100.00%    100.00% # Request fanout histogram
system.membus.snoop_fanout::1                       0      0.00%    100.00% # Request fanout histogram
system.membus.snoop_fanout::overflows               0      0.00%    100.00% # Request fanout histogram
system.membus.snoop_fanout::min_value               0                       # Request fanout histogram
system.membus.snoop_fanout::max_value               0                       # Request fanout histogram
system.membus.snoop_fanout::total             1514587                       # Request fanout histogram
system.membus.reqLayer2.occupancy          3093983500                       # Layer occupancy (ticks)
system.membus.reqLayer2.utilization               0.1                       # Layer utilization (%)
system.membus.respLayer1.occupancy         7572950000                       # Layer occupancy (ticks)
system.membus.respLayer1.utilization              0.3                       # Layer utilization (%)
system.tol2bus.snoop_filter.tot_requests      6259824                       # Total number of requests made to the snoop filter.
system.tol2bus.snoop_filter.hit_single_requests      3129435                       # Number of requests hitting in the snoop filter with a single holder of the requested data.
system.tol2bus.snoop_filter.hit_multi_requests            1                       # Number of requests hitting in the snoop filter with multiple (>1) holders of the requested data.
system.tol2bus.snoop_filter.tot_snoops         327812                       # Total number of snoops made to the snoop filter.
system.tol2bus.snoop_filter.hit_single_snoops       327812                       # Number of snoops hitting in the snoop filter with a single holder of the requested data.
system.tol2bus.snoop_filter.hit_multi_snoops            0                       # Number of snoops hitting in the snoop filter with multiple (>1) holders of the requested data.
system.tol2bus.pwrStateResidencyTicks::UNDEFINED 2363594771000                       # Cumulative time (in ticks) in various power states
system.tol2bus.trans_dist::ReadResp           3109627                       # Transaction distribution
system.tol2bus.trans_dist::WritebackDirty       158287                       # Transaction distribution
system.tol2bus.trans_dist::WritebackClean          306                       # Transaction distribution
system.tol2bus.trans_dist::CleanEvict         6194026                       # Transaction distribution
system.tol2bus.trans_dist::UpgradeReq               9                       # Transaction distribution
system.tol2bus.trans_dist::UpgradeResp              9                       # Transaction distribution
system.tol2bus.trans_dist::ReadExReq            20762                       # Transaction distribution
system.tol2bus.trans_dist::ReadExResp           20762                       # Transaction distribution
system.tol2bus.trans_dist::ReadCleanReq           757                       # Transaction distribution
system.tol2bus.trans_dist::ReadSharedReq      3108870                       # Transaction distribution
system.tol2bus.pkt_count_system.cpu.icache.mem_side::system.l2.cpu_side         1820                       # Packet count per connected master and slave (bytes)
system.tol2bus.pkt_count_system.cpu.dcache.mem_side::system.l2.cpu_side      9388402                       # Packet count per connected master and slave (bytes)
system.tol2bus.pkt_count::total               9390222                       # Packet count per connected master and slave (bytes)
system.tol2bus.pkt_size_system.cpu.icache.mem_side::system.l2.cpu_side        68032                       # Cumulative packet size per connected master and slave (bytes)
system.tol2bus.pkt_size_system.cpu.dcache.mem_side::system.l2.cpu_side    204186944                       # Cumulative packet size per connected master and slave (bytes)
system.tol2bus.pkt_size::total              204254976                       # Cumulative packet size per connected master and slave (bytes)
system.tol2bus.snoops                         3223193                       # Total snoops (count)
system.tol2bus.snoopTraffic                   6239872                       # Total snoop traffic (bytes)
system.tol2bus.snoop_fanout::samples          6353591                       # Request fanout histogram
system.tol2bus.snoop_fanout::mean            0.051595                       # Request fanout histogram
system.tol2bus.snoop_fanout::stdev           0.221208                       # Request fanout histogram
system.tol2bus.snoop_fanout::underflows             0      0.00%      0.00% # Request fanout histogram
system.tol2bus.snoop_fanout::0                6025778     94.84%     94.84% # Request fanout histogram
system.tol2bus.snoop_fanout::1                 327813      5.16%    100.00% # Request fanout histogram
system.tol2bus.snoop_fanout::2                      0      0.00%    100.00% # Request fanout histogram
system.tol2bus.snoop_fanout::3                      0      0.00%    100.00% # Request fanout histogram
system.tol2bus.snoop_fanout::4                      0      0.00%    100.00% # Request fanout histogram
system.tol2bus.snoop_fanout::overflows              0      0.00%    100.00% # Request fanout histogram
system.tol2bus.snoop_fanout::min_value              0                       # Request fanout histogram
system.tol2bus.snoop_fanout::max_value              1                       # Request fanout histogram
system.tol2bus.snoop_fanout::total            6353591                       # Request fanout histogram
system.tol2bus.reqLayer0.occupancy         3191007000                       # Layer occupancy (ticks)
system.tol2bus.reqLayer0.utilization              0.1                       # Layer utilization (%)
system.tol2bus.respLayer0.occupancy           1135500                       # Layer occupancy (ticks)
system.tol2bus.respLayer0.utilization             0.0                       # Layer utilization (%)
system.tol2bus.respLayer1.occupancy        4694452500                       # Layer occupancy (ticks)
system.tol2bus.respLayer1.utilization             0.2                       # Layer utilization (%)
system.tol3bus.snoop_filter.tot_requests      3422217                       # Total number of requests made to the snoop filter.
system.tol3bus.snoop_filter.hit_single_requests      1709888                       # Number of requests hitting in the snoop filter with a single holder of the requested data.
system.tol3bus.snoop_filter.hit_multi_requests            0                       # Number of requests hitting in the snoop filter with multiple (>1) holders of the requested data.
system.tol3bus.snoop_filter.tot_snoops        1512734                       # Total number of snoops made to the snoop filter.
system.tol3bus.snoop_filter.hit_single_snoops      1512734                       # Number of snoops hitting in the snoop filter with a single holder of the requested data.
system.tol3bus.snoop_filter.hit_multi_snoops            0                       # Number of snoops hitting in the snoop filter with multiple (>1) holders of the requested data.
system.tol3bus.pwrStateResidencyTicks::UNDEFINED 2363594771000                       # Cumulative time (in ticks) in various power states
system.tol3bus.trans_dist::ReadResp           1694968                       # Transaction distribution
system.tol3bus.trans_dist::WritebackDirty       114442                       # Transaction distribution
system.tol3bus.trans_dist::CleanEvict         3125206                       # Transaction distribution
system.tol3bus.trans_dist::ReadExReq            17360                       # Transaction distribution
system.tol3bus.trans_dist::ReadExResp           17360                       # Transaction distribution
system.tol3bus.trans_dist::ReadSharedReq      1694968                       # Transaction distribution
system.tol3bus.pkt_count_system.l2.mem_side::system.l3.cpu_side      5134544                       # Packet count per connected master and slave (bytes)
system.tol3bus.pkt_size_system.l2.mem_side::system.l3.cpu_side    115828864                       # Cumulative packet size per connected master and slave (bytes)
system.tol3bus.snoops                         1529760                       # Total snoops (count)
system.tol3bus.snoopTraffic                   1084416                       # Total snoop traffic (bytes)
system.tol3bus.snoop_fanout::samples          3242089                       # Request fanout histogram
system.tol3bus.snoop_fanout::mean            0.466592                       # Request fanout histogram
system.tol3bus.snoop_fanout::stdev           0.498883                       # Request fanout histogram
system.tol3bus.snoop_fanout::underflows             0      0.00%      0.00% # Request fanout histogram
system.tol3bus.snoop_fanout::0                1729355     53.34%     53.34% # Request fanout histogram
system.tol3bus.snoop_fanout::1                1512734     46.66%    100.00% # Request fanout histogram
system.tol3bus.snoop_fanout::overflows              0      0.00%    100.00% # Request fanout histogram
system.tol3bus.snoop_fanout::min_value              0                       # Request fanout histogram
system.tol3bus.snoop_fanout::max_value              1                       # Request fanout histogram
system.tol3bus.snoop_fanout::total            3242089                       # Request fanout histogram
system.tol3bus.reqLayer0.occupancy         1808606999                       # Layer occupancy (ticks)
system.tol3bus.reqLayer0.utilization              0.1                       # Layer utilization (%)
system.tol3bus.respLayer0.occupancy        2568492001                       # Layer occupancy (ticks)
system.tol3bus.respLayer0.utilization             0.1                       # Layer utilization (%)

---------- End Simulation Statistics   ----------