root@COproject:/home/vboxuser/proj/gem5/m5out# cat stats.txt

---------- Begin Simulation Statistics ----------
sim_seconds                                  1.094655                       # Number of seconds simulated
sim_ticks                                1094655127000                       # Number of ticks simulated
final_tick                               1094655127000                       # Number of ticks from beginning of simulation (restored from checkpoints and never reset)
sim_freq                                 1000000000000                       # Frequency of simulated ticks
host_inst_rate                                1270542                       # Simulator instruction rate (inst/s)
host_op_rate                                  2063854                       # Simulator op (including micro ops) rate (op/s)
host_tick_rate                             2753160606                       # Simulator tick rate (ticks/s)
host_mem_usage                                 681612                       # Number of bytes of host memory used
host_seconds                                   397.60                       # Real time elapsed on the host
sim_insts                                   505166658                       # Number of instructions simulated
sim_ops                                     820587161                       # Number of ops (including micro ops) simulated
system.voltage_domain.voltage                       1                       # Voltage in Volts
system.clk_domain.clock                          1000                       # Clock period in ticks
system.mem_ctrls.pwrStateResidencyTicks::UNDEFINED 1094655127000                       # Cumulative time (in ticks) in various power states
system.mem_ctrls.bytes_read::cpu.inst           47104                       # Number of bytes read from this memory
system.mem_ctrls.bytes_read::cpu.data        17311936                       # Number of bytes read from this memory
system.mem_ctrls.bytes_read::total           17359040                       # Number of bytes read from this memory
system.mem_ctrls.bytes_inst_read::cpu.inst        47104                       # Number of instructions bytes read from this memory
system.mem_ctrls.bytes_inst_read::total         47104                       # Number of instructions bytes read from this memory
system.mem_ctrls.bytes_written::writebacks     15825856                       # Number of bytes written to this memory
system.mem_ctrls.bytes_written::total        15825856                       # Number of bytes written to this memory
system.mem_ctrls.num_reads::cpu.inst              736                       # Number of read requests responded to by this memory
system.mem_ctrls.num_reads::cpu.data           270499                       # Number of read requests responded to by this memory
system.mem_ctrls.num_reads::total              271235                       # Number of read requests responded to by this memory
system.mem_ctrls.num_writes::writebacks        247279                       # Number of write requests responded to by this memory
system.mem_ctrls.num_writes::total             247279                       # Number of write requests responded to by this memory
system.mem_ctrls.bw_read::cpu.inst              43031                       # Total read bandwidth from this memory (bytes/s)
system.mem_ctrls.bw_read::cpu.data           15814968                       # Total read bandwidth from this memory (bytes/s)
system.mem_ctrls.bw_read::total              15857999                       # Total read bandwidth from this memory (bytes/s)
system.mem_ctrls.bw_inst_read::cpu.inst         43031                       # Instruction read bandwidth from this memory (bytes/s)
system.mem_ctrls.bw_inst_read::total            43031                       # Instruction read bandwidth from this memory (bytes/s)
system.mem_ctrls.bw_write::writebacks        14457390                       # Write bandwidth from this memory (bytes/s)
system.mem_ctrls.bw_write::total             14457390                       # Write bandwidth from this memory (bytes/s)
system.mem_ctrls.bw_total::writebacks        14457390                       # Total bandwidth to/from this memory (bytes/s)
system.mem_ctrls.bw_total::cpu.inst             43031                       # Total bandwidth to/from this memory (bytes/s)
system.mem_ctrls.bw_total::cpu.data          15814968                       # Total bandwidth to/from this memory (bytes/s)
system.mem_ctrls.bw_total::total             30315389                       # Total bandwidth to/from this memory (bytes/s)
system.pwrStateResidencyTicks::UNDEFINED 1094655127000                       # Cumulative time (in ticks) in various power states
system.cpu_voltage_domain.voltage                   1                       # Voltage in Volts
system.cpu_clk_domain.clock                       500                       # Clock period in ticks
system.cpu.dtb.walker.pwrStateResidencyTicks::UNDEFINED 1094655127000                       # Cumulative time (in ticks) in various power states
system.cpu.dtb.rdAccesses                   239266649                       # TLB accesses on read requests
system.cpu.dtb.wrAccesses                    64382894                       # TLB accesses on write requests
system.cpu.dtb.rdMisses                          5986                       # TLB misses on read requests
system.cpu.dtb.wrMisses                          1004                       # TLB misses on write requests
system.cpu.apic_clk_domain.clock                 8000                       # Clock period in ticks
system.cpu.interrupts.pwrStateResidencyTicks::UNDEFINED 1094655127000                       # Cumulative time (in ticks) in various power states
system.cpu.itb.walker.pwrStateResidencyTicks::UNDEFINED 1094655127000                       # Cumulative time (in ticks) in various power states
system.cpu.itb.rdAccesses                           0                       # TLB accesses on read requests
system.cpu.itb.wrAccesses                   670577247                       # TLB accesses on write requests
system.cpu.itb.rdMisses                             0                       # TLB misses on read requests
system.cpu.itb.wrMisses                            78                       # TLB misses on write requests
system.cpu.workload.numSyscalls                    25                       # Number of system calls
system.cpu.pwrStateResidencyTicks::ON    1094655127000                       # Cumulative time (in ticks) in various power states
system.cpu.numCycles                       2189310254                       # number of cpu cycles simulated
system.cpu.numWorkItemsStarted                      0                       # number of work items this cpu started
system.cpu.numWorkItemsCompleted                    0                       # number of work items this cpu completed
system.cpu.committedInsts                   505166658                       # Number of instructions committed
system.cpu.committedOps                     820587161                       # Number of ops (including micro ops) committed
system.cpu.num_int_alu_accesses             815768983                       # Number of integer alu accesses
system.cpu.num_fp_alu_accesses                   4324                       # Number of float alu accesses
system.cpu.num_vec_alu_accesses                     0                       # Number of vector alu accesses
system.cpu.num_func_calls                     9453744                       # number of times a function call or return occured
system.cpu.num_conditional_control_insts     46579551                       # number of instructions that are conditional controls
system.cpu.num_int_insts                    815768983                       # number of integer instructions
system.cpu.num_fp_insts                          4324                       # number of float instructions
system.cpu.num_vec_insts                            0                       # number of vector instructions
system.cpu.num_int_register_reads          1829128264                       # number of times the integer registers were read
system.cpu.num_int_register_writes          707859049                       # number of times the integer registers were written
system.cpu.num_fp_register_reads                 6422                       # number of times the floating registers were read
system.cpu.num_fp_register_writes                3209                       # number of times the floating registers were written
system.cpu.num_vec_register_reads                   0                       # number of times the vector registers were read
system.cpu.num_vec_register_writes                  0                       # number of times the vector registers were written
system.cpu.num_cc_register_reads            297650494                       # number of times the CC registers were read
system.cpu.num_cc_register_writes           279965074                       # number of times the CC registers were written
system.cpu.num_mem_refs                     303649535                       # number of memory refs
system.cpu.num_load_insts                   239266641                       # Number of load instructions
system.cpu.num_store_insts                   64382894                       # Number of store instructions
system.cpu.num_idle_cycles                          0                       # Number of idle cycles
system.cpu.num_busy_cycles                 2189310254                       # Number of busy cycles
system.cpu.not_idle_fraction                        1                       # Percentage of non-idle cycles
system.cpu.idle_fraction                            0                       # Percentage of idle cycles
system.cpu.Branches                          61787380                       # Number of branches fetched
system.cpu.op_class::No_OpClass               1363335      0.17%      0.17% # Class of executed instruction
system.cpu.op_class::IntAlu                 507122428     61.80%     61.97% # Class of executed instruction
system.cpu.op_class::IntMult                       15      0.00%     61.97% # Class of executed instruction
system.cpu.op_class::IntDiv                   8449251      1.03%     63.00% # Class of executed instruction
system.cpu.op_class::FloatAdd                     132      0.00%     63.00% # Class of executed instruction
system.cpu.op_class::FloatCmp                       0      0.00%     63.00% # Class of executed instruction
system.cpu.op_class::FloatCvt                       0      0.00%     63.00% # Class of executed instruction
system.cpu.op_class::FloatMult                      0      0.00%     63.00% # Class of executed instruction
system.cpu.op_class::FloatMultAcc                   0      0.00%     63.00% # Class of executed instruction
system.cpu.op_class::FloatDiv                       0      0.00%     63.00% # Class of executed instruction
system.cpu.op_class::FloatMisc                      0      0.00%     63.00% # Class of executed instruction
system.cpu.op_class::FloatSqrt                      0      0.00%     63.00% # Class of executed instruction
system.cpu.op_class::SimdAdd                      348      0.00%     63.00% # Class of executed instruction
system.cpu.op_class::SimdAddAcc                     0      0.00%     63.00% # Class of executed instruction
system.cpu.op_class::SimdAlu                      682      0.00%     63.00% # Class of executed instruction
system.cpu.op_class::SimdCmp                        0      0.00%     63.00% # Class of executed instruction
system.cpu.op_class::SimdCvt                      776      0.00%     63.00% # Class of executed instruction
system.cpu.op_class::SimdMisc                     530      0.00%     63.00% # Class of executed instruction
system.cpu.op_class::SimdMult                       0      0.00%     63.00% # Class of executed instruction
system.cpu.op_class::SimdMultAcc                    0      0.00%     63.00% # Class of executed instruction
system.cpu.op_class::SimdShift                    129      0.00%     63.00% # Class of executed instruction
system.cpu.op_class::SimdShiftAcc                   0      0.00%     63.00% # Class of executed instruction
system.cpu.op_class::SimdSqrt                       0      0.00%     63.00% # Class of executed instruction
system.cpu.op_class::SimdFloatAdd                   0      0.00%     63.00% # Class of executed instruction
system.cpu.op_class::SimdFloatAlu                   0      0.00%     63.00% # Class of executed instruction
system.cpu.op_class::SimdFloatCmp                   0      0.00%     63.00% # Class of executed instruction
system.cpu.op_class::SimdFloatCvt                   0      0.00%     63.00% # Class of executed instruction
system.cpu.op_class::SimdFloatDiv                   0      0.00%     63.00% # Class of executed instruction
system.cpu.op_class::SimdFloatMisc                  0      0.00%     63.00% # Class of executed instruction
system.cpu.op_class::SimdFloatMult                  0      0.00%     63.00% # Class of executed instruction
system.cpu.op_class::SimdFloatMultAcc               0      0.00%     63.00% # Class of executed instruction
system.cpu.op_class::SimdFloatSqrt                  0      0.00%     63.00% # Class of executed instruction
system.cpu.op_class::MemRead                239265663     29.16%     92.15% # Class of executed instruction
system.cpu.op_class::MemWrite                64382204      7.85%    100.00% # Class of executed instruction
system.cpu.op_class::FloatMemRead                 978      0.00%    100.00% # Class of executed instruction
system.cpu.op_class::FloatMemWrite                690      0.00%    100.00% # Class of executed instruction
system.cpu.op_class::IprAccess                      0      0.00%    100.00% # Class of executed instruction
system.cpu.op_class::InstPrefetch                   0      0.00%    100.00% # Class of executed instruction
system.cpu.op_class::total                  820587161                       # Class of executed instruction
system.cpu.dcache.tags.pwrStateResidencyTicks::UNDEFINED 1094655127000                       # Cumulative time (in ticks) in various power states
system.cpu.dcache.tags.tagsinuse           511.952666                       # Cycle average of tags in use
system.cpu.dcache.tags.total_refs           303649543                       # Total number of references to valid blocks.
system.cpu.dcache.tags.sampled_refs            683959                       # Sample count of references to valid blocks.
system.cpu.dcache.tags.avg_refs            443.958692                       # Average number of references to valid blocks.
system.cpu.dcache.tags.warmup_cycle            759000                       # Cycle when the warmup percentage was hit.
system.cpu.dcache.tags.occ_blocks::cpu.data   511.952666                       # Average occupied blocks per requestor
system.cpu.dcache.tags.occ_percent::cpu.data     0.999908                       # Average percentage of cache occupancy
system.cpu.dcache.tags.occ_percent::total     0.999908                       # Average percentage of cache occupancy
system.cpu.dcache.tags.occ_task_id_blocks::1024          512                       # Occupied blocks per task id
system.cpu.dcache.tags.age_task_id_blocks_1024::0           12                       # Occupied blocks per task id
system.cpu.dcache.tags.age_task_id_blocks_1024::1           46                       # Occupied blocks per task id
system.cpu.dcache.tags.age_task_id_blocks_1024::2           63                       # Occupied blocks per task id
system.cpu.dcache.tags.age_task_id_blocks_1024::3          383                       # Occupied blocks per task id
system.cpu.dcache.tags.age_task_id_blocks_1024::4            8                       # Occupied blocks per task id
system.cpu.dcache.tags.occ_task_id_percent::1024            1                       # Percentage of cache occupancy per task id
system.cpu.dcache.tags.tag_accesses         607983045                       # Number of tag accesses
system.cpu.dcache.tags.data_accesses        607983045                       # Number of data accesses
system.cpu.dcache.pwrStateResidencyTicks::UNDEFINED 1094655127000                       # Cumulative time (in ticks) in various power states
system.cpu.dcache.ReadReq_hits::cpu.data    238649519                       # number of ReadReq hits
system.cpu.dcache.ReadReq_hits::total       238649519                       # number of ReadReq hits
system.cpu.dcache.WriteReq_hits::cpu.data     64085836                       # number of WriteReq hits
system.cpu.dcache.WriteReq_hits::total       64085836                       # number of WriteReq hits
system.cpu.dcache.demand_hits::cpu.data     302735355                       # number of demand (read+write) hits
system.cpu.dcache.demand_hits::total        302735355                       # number of demand (read+write) hits
system.cpu.dcache.overall_hits::cpu.data    302735355                       # number of overall hits
system.cpu.dcache.overall_hits::total       302735355                       # number of overall hits
system.cpu.dcache.ReadReq_misses::cpu.data       617130                       # number of ReadReq misses
system.cpu.dcache.ReadReq_misses::total        617130                       # number of ReadReq misses
system.cpu.dcache.WriteReq_misses::cpu.data       297058                       # number of WriteReq misses
system.cpu.dcache.WriteReq_misses::total       297058                       # number of WriteReq misses
system.cpu.dcache.demand_misses::cpu.data       914188                       # number of demand (read+write) misses
system.cpu.dcache.demand_misses::total         914188                       # number of demand (read+write) misses
system.cpu.dcache.overall_misses::cpu.data       914188                       # number of overall misses
system.cpu.dcache.overall_misses::total        914188                       # number of overall misses
system.cpu.dcache.ReadReq_miss_latency::cpu.data  97607843500                       # number of ReadReq miss cycles
system.cpu.dcache.ReadReq_miss_latency::total  97607843500                       # number of ReadReq miss cycles
system.cpu.dcache.WriteReq_miss_latency::cpu.data  23617657000                       # number of WriteReq miss cycles
system.cpu.dcache.WriteReq_miss_latency::total  23617657000                       # number of WriteReq miss cycles
system.cpu.dcache.demand_miss_latency::cpu.data 121225500500                       # number of demand (read+write) miss cycles
system.cpu.dcache.demand_miss_latency::total 121225500500                       # number of demand (read+write) miss cycles
system.cpu.dcache.overall_miss_latency::cpu.data 121225500500                       # number of overall miss cycles
system.cpu.dcache.overall_miss_latency::total 121225500500                       # number of overall miss cycles
system.cpu.dcache.ReadReq_accesses::cpu.data    239266649                       # number of ReadReq accesses(hits+misses)
system.cpu.dcache.ReadReq_accesses::total    239266649                       # number of ReadReq accesses(hits+misses)
system.cpu.dcache.WriteReq_accesses::cpu.data     64382894                       # number of WriteReq accesses(hits+misses)
system.cpu.dcache.WriteReq_accesses::total     64382894                       # number of WriteReq accesses(hits+misses)
system.cpu.dcache.demand_accesses::cpu.data    303649543                       # number of demand (read+write) accesses
system.cpu.dcache.demand_accesses::total    303649543                       # number of demand (read+write) accesses
system.cpu.dcache.overall_accesses::cpu.data    303649543                       # number of overall (read+write) accesses
system.cpu.dcache.overall_accesses::total    303649543                       # number of overall (read+write) accesses
system.cpu.dcache.ReadReq_miss_rate::cpu.data     0.002579                       # miss rate for ReadReq accesses
system.cpu.dcache.ReadReq_miss_rate::total     0.002579                       # miss rate for ReadReq accesses
system.cpu.dcache.WriteReq_miss_rate::cpu.data     0.004614                       # miss rate for WriteReq accesses
system.cpu.dcache.WriteReq_miss_rate::total     0.004614                       # miss rate for WriteReq accesses
system.cpu.dcache.demand_miss_rate::cpu.data     0.003011                       # miss rate for demand accesses
system.cpu.dcache.demand_miss_rate::total     0.003011                       # miss rate for demand accesses
system.cpu.dcache.overall_miss_rate::cpu.data     0.003011                       # miss rate for overall accesses
system.cpu.dcache.overall_miss_rate::total     0.003011                       # miss rate for overall accesses
system.cpu.dcache.ReadReq_avg_miss_latency::cpu.data 158164.152610                       # average ReadReq miss latency
system.cpu.dcache.ReadReq_avg_miss_latency::total 158164.152610                       # average ReadReq miss latency
system.cpu.dcache.WriteReq_avg_miss_latency::cpu.data 79505.204371                       # average WriteReq miss latency
system.cpu.dcache.WriteReq_avg_miss_latency::total 79505.204371                       # average WriteReq miss latency
system.cpu.dcache.demand_avg_miss_latency::cpu.data 132604.563285                       # average overall miss latency
system.cpu.dcache.demand_avg_miss_latency::total 132604.563285                       # average overall miss latency
system.cpu.dcache.overall_avg_miss_latency::cpu.data 132604.563285                       # average overall miss latency
system.cpu.dcache.overall_avg_miss_latency::total 132604.563285                       # average overall miss latency
system.cpu.dcache.blocked_cycles::no_mshrs            0                       # number of cycles access was blocked
system.cpu.dcache.blocked_cycles::no_targets            0                       # number of cycles access was blocked
system.cpu.dcache.blocked::no_mshrs                 0                       # number of cycles access was blocked
system.cpu.dcache.blocked::no_targets               0                       # number of cycles access was blocked
system.cpu.dcache.avg_blocked_cycles::no_mshrs          nan                       # average number of cycles each access was blocked
system.cpu.dcache.avg_blocked_cycles::no_targets          nan                       # average number of cycles each access was blocked
system.cpu.dcache.writebacks::writebacks       657961                       # number of writebacks
system.cpu.dcache.writebacks::total            657961                       # number of writebacks
system.cpu.dcache.ReadReq_mshr_misses::cpu.data       617130                       # number of ReadReq MSHR misses
system.cpu.dcache.ReadReq_mshr_misses::total       617130                       # number of ReadReq MSHR misses
system.cpu.dcache.WriteReq_mshr_misses::cpu.data       297058                       # number of WriteReq MSHR misses
system.cpu.dcache.WriteReq_mshr_misses::total       297058                       # number of WriteReq MSHR misses
system.cpu.dcache.demand_mshr_misses::cpu.data       914188                       # number of demand (read+write) MSHR misses
system.cpu.dcache.demand_mshr_misses::total       914188                       # number of demand (read+write) MSHR misses
system.cpu.dcache.overall_mshr_misses::cpu.data       914188                       # number of overall MSHR misses
system.cpu.dcache.overall_mshr_misses::total       914188                       # number of overall MSHR misses
system.cpu.dcache.ReadReq_mshr_miss_latency::cpu.data  96990713500                       # number of ReadReq MSHR miss cycles
system.cpu.dcache.ReadReq_mshr_miss_latency::total  96990713500                       # number of ReadReq MSHR miss cycles
system.cpu.dcache.WriteReq_mshr_miss_latency::cpu.data  23320599000                       # number of WriteReq MSHR miss cycles
system.cpu.dcache.WriteReq_mshr_miss_latency::total  23320599000                       # number of WriteReq MSHR miss cycles
system.cpu.dcache.demand_mshr_miss_latency::cpu.data 120311312500                       # number of demand (read+write) MSHR miss cycles
system.cpu.dcache.demand_mshr_miss_latency::total 120311312500                       # number of demand (read+write) MSHR miss cycles
system.cpu.dcache.overall_mshr_miss_latency::cpu.data 120311312500                       # number of overall MSHR miss cycles
system.cpu.dcache.overall_mshr_miss_latency::total 120311312500                       # number of overall MSHR miss cycles
system.cpu.dcache.ReadReq_mshr_miss_rate::cpu.data     0.002579                       # mshr miss rate for ReadReq accesses
system.cpu.dcache.ReadReq_mshr_miss_rate::total     0.002579                       # mshr miss rate for ReadReq accesses
system.cpu.dcache.WriteReq_mshr_miss_rate::cpu.data     0.004614                       # mshr miss rate for WriteReq accesses
system.cpu.dcache.WriteReq_mshr_miss_rate::total     0.004614                       # mshr miss rate for WriteReq accesses
system.cpu.dcache.demand_mshr_miss_rate::cpu.data     0.003011                       # mshr miss rate for demand accesses
system.cpu.dcache.demand_mshr_miss_rate::total     0.003011                       # mshr miss rate for demand accesses
system.cpu.dcache.overall_mshr_miss_rate::cpu.data     0.003011                       # mshr miss rate for overall accesses
system.cpu.dcache.overall_mshr_miss_rate::total     0.003011                       # mshr miss rate for overall accesses
system.cpu.dcache.ReadReq_avg_mshr_miss_latency::cpu.data 157164.152610                       # average ReadReq mshr miss latency
system.cpu.dcache.ReadReq_avg_mshr_miss_latency::total 157164.152610                       # average ReadReq mshr miss latency
system.cpu.dcache.WriteReq_avg_mshr_miss_latency::cpu.data 78505.204371                       # average WriteReq mshr miss latency
system.cpu.dcache.WriteReq_avg_mshr_miss_latency::total 78505.204371                       # average WriteReq mshr miss latency
system.cpu.dcache.demand_avg_mshr_miss_latency::cpu.data 131604.563285                       # average overall mshr miss latency
system.cpu.dcache.demand_avg_mshr_miss_latency::total 131604.563285                       # average overall mshr miss latency
system.cpu.dcache.overall_avg_mshr_miss_latency::cpu.data 131604.563285                       # average overall mshr miss latency
system.cpu.dcache.overall_avg_mshr_miss_latency::total 131604.563285                       # average overall mshr miss latency
system.cpu.dcache.replacements                 683447                       # number of replacements
system.cpu.dtb_walker_cache.tags.pwrStateResidencyTicks::UNDEFINED 1094655127000                       # Cumulative time (in ticks) in various power states
system.cpu.dtb_walker_cache.tags.tagsinuse            0                       # Cycle average of tags in use
system.cpu.dtb_walker_cache.tags.total_refs            0                       # Total number of references to valid blocks.
system.cpu.dtb_walker_cache.tags.sampled_refs            0                       # Sample count of references to valid blocks.
system.cpu.dtb_walker_cache.tags.avg_refs          nan                       # Average number of references to valid blocks.
system.cpu.dtb_walker_cache.tags.warmup_cycle            0                       # Cycle when the warmup percentage was hit.
system.cpu.dtb_walker_cache.tags.tag_accesses            0                       # Number of tag accesses
system.cpu.dtb_walker_cache.tags.data_accesses            0                       # Number of data accesses
system.cpu.dtb_walker_cache.pwrStateResidencyTicks::UNDEFINED 1094655127000                       # Cumulative time (in ticks) in various power states
system.cpu.dtb_walker_cache.blocked_cycles::no_mshrs            0                       # number of cycles access was blocked
system.cpu.dtb_walker_cache.blocked_cycles::no_targets            0                       # number of cycles access was blocked
system.cpu.dtb_walker_cache.blocked::no_mshrs            0                       # number of cycles access was blocked
system.cpu.dtb_walker_cache.blocked::no_targets            0                       # number of cycles access was blocked
system.cpu.dtb_walker_cache.avg_blocked_cycles::no_mshrs          nan                       # average number of cycles each access was blocked
system.cpu.dtb_walker_cache.avg_blocked_cycles::no_targets          nan                       # average number of cycles each access was blocked
system.cpu.dtb_walker_cache.replacements            0                       # number of replacements
system.cpu.icache.tags.pwrStateResidencyTicks::UNDEFINED 1094655127000                       # Cumulative time (in ticks) in various power states
system.cpu.icache.tags.tagsinuse           439.697564                       # Cycle average of tags in use
system.cpu.icache.tags.total_refs           670577247                       # Total number of references to valid blocks.
system.cpu.icache.tags.sampled_refs               755                       # Sample count of references to valid blocks.
system.cpu.icache.tags.avg_refs          888181.784106                       # Average number of references to valid blocks.
system.cpu.icache.tags.warmup_cycle            439000                       # Cycle when the warmup percentage was hit.
system.cpu.icache.tags.occ_blocks::cpu.inst   439.697564                       # Average occupied blocks per requestor
system.cpu.icache.tags.occ_percent::cpu.inst     0.858784                       # Average percentage of cache occupancy
system.cpu.icache.tags.occ_percent::total     0.858784                       # Average percentage of cache occupancy
system.cpu.icache.tags.occ_task_id_blocks::1024          450                       # Occupied blocks per task id
system.cpu.icache.tags.age_task_id_blocks_1024::0           18                       # Occupied blocks per task id
system.cpu.icache.tags.age_task_id_blocks_1024::1           42                       # Occupied blocks per task id
system.cpu.icache.tags.age_task_id_blocks_1024::4          390                       # Occupied blocks per task id
system.cpu.icache.tags.occ_task_id_percent::1024     0.878906                       # Percentage of cache occupancy per task id
system.cpu.icache.tags.tag_accesses        1341155249                       # Number of tag accesses
system.cpu.icache.tags.data_accesses       1341155249                       # Number of data accesses
system.cpu.icache.pwrStateResidencyTicks::UNDEFINED 1094655127000                       # Cumulative time (in ticks) in various power states
system.cpu.icache.ReadReq_hits::cpu.inst    670576492                       # number of ReadReq hits
system.cpu.icache.ReadReq_hits::total       670576492                       # number of ReadReq hits
system.cpu.icache.demand_hits::cpu.inst     670576492                       # number of demand (read+write) hits
system.cpu.icache.demand_hits::total        670576492                       # number of demand (read+write) hits
system.cpu.icache.overall_hits::cpu.inst    670576492                       # number of overall hits
system.cpu.icache.overall_hits::total       670576492                       # number of overall hits
system.cpu.icache.ReadReq_misses::cpu.inst          755                       # number of ReadReq misses
system.cpu.icache.ReadReq_misses::total           755                       # number of ReadReq misses
system.cpu.icache.demand_misses::cpu.inst          755                       # number of demand (read+write) misses
system.cpu.icache.demand_misses::total            755                       # number of demand (read+write) misses
system.cpu.icache.overall_misses::cpu.inst          755                       # number of overall misses
system.cpu.icache.overall_misses::total           755                       # number of overall misses
system.cpu.icache.ReadReq_miss_latency::cpu.inst    118098500                       # number of ReadReq miss cycles
system.cpu.icache.ReadReq_miss_latency::total    118098500                       # number of ReadReq miss cycles
system.cpu.icache.demand_miss_latency::cpu.inst    118098500                       # number of demand (read+write) miss cycles
system.cpu.icache.demand_miss_latency::total    118098500                       # number of demand (read+write) miss cycles
system.cpu.icache.overall_miss_latency::cpu.inst    118098500                       # number of overall miss cycles
system.cpu.icache.overall_miss_latency::total    118098500                       # number of overall miss cycles
system.cpu.icache.ReadReq_accesses::cpu.inst    670577247                       # number of ReadReq accesses(hits+misses)
system.cpu.icache.ReadReq_accesses::total    670577247                       # number of ReadReq accesses(hits+misses)
system.cpu.icache.demand_accesses::cpu.inst    670577247                       # number of demand (read+write) accesses
system.cpu.icache.demand_accesses::total    670577247                       # number of demand (read+write) accesses
system.cpu.icache.overall_accesses::cpu.inst    670577247                       # number of overall (read+write) accesses
system.cpu.icache.overall_accesses::total    670577247                       # number of overall (read+write) accesses
system.cpu.icache.ReadReq_miss_rate::cpu.inst     0.000001                       # miss rate for ReadReq accesses
system.cpu.icache.ReadReq_miss_rate::total     0.000001                       # miss rate for ReadReq accesses
system.cpu.icache.demand_miss_rate::cpu.inst     0.000001                       # miss rate for demand accesses
system.cpu.icache.demand_miss_rate::total     0.000001                       # miss rate for demand accesses
system.cpu.icache.overall_miss_rate::cpu.inst     0.000001                       # miss rate for overall accesses
system.cpu.icache.overall_miss_rate::total     0.000001                       # miss rate for overall accesses
system.cpu.icache.ReadReq_avg_miss_latency::cpu.inst 156421.854305                       # average ReadReq miss latency
system.cpu.icache.ReadReq_avg_miss_latency::total 156421.854305                       # average ReadReq miss latency
system.cpu.icache.demand_avg_miss_latency::cpu.inst 156421.854305                       # average overall miss latency
system.cpu.icache.demand_avg_miss_latency::total 156421.854305                       # average overall miss latency
system.cpu.icache.overall_avg_miss_latency::cpu.inst 156421.854305                       # average overall miss latency
system.cpu.icache.overall_avg_miss_latency::total 156421.854305                       # average overall miss latency
system.cpu.icache.blocked_cycles::no_mshrs            0                       # number of cycles access was blocked
system.cpu.icache.blocked_cycles::no_targets            0                       # number of cycles access was blocked
system.cpu.icache.blocked::no_mshrs                 0                       # number of cycles access was blocked
system.cpu.icache.blocked::no_targets               0                       # number of cycles access was blocked
system.cpu.icache.avg_blocked_cycles::no_mshrs          nan                       # average number of cycles each access was blocked
system.cpu.icache.avg_blocked_cycles::no_targets          nan                       # average number of cycles each access was blocked
system.cpu.icache.writebacks::writebacks          305                       # number of writebacks
system.cpu.icache.writebacks::total               305                       # number of writebacks
system.cpu.icache.ReadReq_mshr_misses::cpu.inst          755                       # number of ReadReq MSHR misses
system.cpu.icache.ReadReq_mshr_misses::total          755                       # number of ReadReq MSHR misses
system.cpu.icache.demand_mshr_misses::cpu.inst          755                       # number of demand (read+write) MSHR misses
system.cpu.icache.demand_mshr_misses::total          755                       # number of demand (read+write) MSHR misses
system.cpu.icache.overall_mshr_misses::cpu.inst          755                       # number of overall MSHR misses
system.cpu.icache.overall_mshr_misses::total          755                       # number of overall MSHR misses
system.cpu.icache.ReadReq_mshr_miss_latency::cpu.inst    117343500                       # number of ReadReq MSHR miss cycles
system.cpu.icache.ReadReq_mshr_miss_latency::total    117343500                       # number of ReadReq MSHR miss cycles
system.cpu.icache.demand_mshr_miss_latency::cpu.inst    117343500                       # number of demand (read+write) MSHR miss cycles
system.cpu.icache.demand_mshr_miss_latency::total    117343500                       # number of demand (read+write) MSHR miss cycles
system.cpu.icache.overall_mshr_miss_latency::cpu.inst    117343500                       # number of overall MSHR miss cycles
system.cpu.icache.overall_mshr_miss_latency::total    117343500                       # number of overall MSHR miss cycles
system.cpu.icache.ReadReq_mshr_miss_rate::cpu.inst     0.000001                       # mshr miss rate for ReadReq accesses
system.cpu.icache.ReadReq_mshr_miss_rate::total     0.000001                       # mshr miss rate for ReadReq accesses
system.cpu.icache.demand_mshr_miss_rate::cpu.inst     0.000001                       # mshr miss rate for demand accesses
system.cpu.icache.demand_mshr_miss_rate::total     0.000001                       # mshr miss rate for demand accesses
system.cpu.icache.overall_mshr_miss_rate::cpu.inst     0.000001                       # mshr miss rate for overall accesses
system.cpu.icache.overall_mshr_miss_rate::total     0.000001                       # mshr miss rate for overall accesses
system.cpu.icache.ReadReq_avg_mshr_miss_latency::cpu.inst 155421.854305                       # average ReadReq mshr miss latency
system.cpu.icache.ReadReq_avg_mshr_miss_latency::total 155421.854305                       # average ReadReq mshr miss latency
system.cpu.icache.demand_avg_mshr_miss_latency::cpu.inst 155421.854305                       # average overall mshr miss latency
system.cpu.icache.demand_avg_mshr_miss_latency::total 155421.854305                       # average overall mshr miss latency
system.cpu.icache.overall_avg_mshr_miss_latency::cpu.inst 155421.854305                       # average overall mshr miss latency
system.cpu.icache.overall_avg_mshr_miss_latency::total 155421.854305                       # average overall mshr miss latency
system.cpu.icache.replacements                    305                       # number of replacements
system.cpu.itb_walker_cache.tags.pwrStateResidencyTicks::UNDEFINED 1094655127000                       # Cumulative time (in ticks) in various power states
system.cpu.itb_walker_cache.tags.tagsinuse            0                       # Cycle average of tags in use
system.cpu.itb_walker_cache.tags.total_refs            0                       # Total number of references to valid blocks.
system.cpu.itb_walker_cache.tags.sampled_refs            0                       # Sample count of references to valid blocks.
system.cpu.itb_walker_cache.tags.avg_refs          nan                       # Average number of references to valid blocks.
system.cpu.itb_walker_cache.tags.warmup_cycle            0                       # Cycle when the warmup percentage was hit.
system.cpu.itb_walker_cache.tags.tag_accesses            0                       # Number of tag accesses
system.cpu.itb_walker_cache.tags.data_accesses            0                       # Number of data accesses
system.cpu.itb_walker_cache.pwrStateResidencyTicks::UNDEFINED 1094655127000                       # Cumulative time (in ticks) in various power states
system.cpu.itb_walker_cache.blocked_cycles::no_mshrs            0                       # number of cycles access was blocked
system.cpu.itb_walker_cache.blocked_cycles::no_targets            0                       # number of cycles access was blocked
system.cpu.itb_walker_cache.blocked::no_mshrs            0                       # number of cycles access was blocked
system.cpu.itb_walker_cache.blocked::no_targets            0                       # number of cycles access was blocked
system.cpu.itb_walker_cache.avg_blocked_cycles::no_mshrs          nan                       # average number of cycles each access was blocked
system.cpu.itb_walker_cache.avg_blocked_cycles::no_targets          nan                       # average number of cycles each access was blocked
system.cpu.itb_walker_cache.replacements            0                       # number of replacements
system.l2.tags.pwrStateResidencyTicks::UNDEFINED 1094655127000                       # Cumulative time (in ticks) in various power states
system.l2.tags.tagsinuse                  2047.614044                       # Cycle average of tags in use
system.l2.tags.total_refs                     1598666                       # Total number of references to valid blocks.
system.l2.tags.sampled_refs                    520778                       # Sample count of references to valid blocks.
system.l2.tags.avg_refs                      3.069765                       # Average number of references to valid blocks.
system.l2.tags.warmup_cycle                    428500                       # Cycle when the warmup percentage was hit.
system.l2.tags.occ_blocks::writebacks        1.231053                       # Average occupied blocks per requestor
system.l2.tags.occ_blocks::cpu.inst          0.736740                       # Average occupied blocks per requestor
system.l2.tags.occ_blocks::cpu.data       2045.646251                       # Average occupied blocks per requestor
system.l2.tags.occ_percent::writebacks       0.000601                       # Average percentage of cache occupancy
system.l2.tags.occ_percent::cpu.inst         0.000360                       # Average percentage of cache occupancy
system.l2.tags.occ_percent::cpu.data         0.998851                       # Average percentage of cache occupancy
system.l2.tags.occ_percent::total            0.999812                       # Average percentage of cache occupancy
system.l2.tags.occ_task_id_blocks::1024          2048                       # Occupied blocks per task id
system.l2.tags.age_task_id_blocks_1024::0           46                       # Occupied blocks per task id
system.l2.tags.age_task_id_blocks_1024::1          123                       # Occupied blocks per task id
system.l2.tags.age_task_id_blocks_1024::3          449                       # Occupied blocks per task id
system.l2.tags.age_task_id_blocks_1024::4         1430                       # Occupied blocks per task id
system.l2.tags.occ_task_id_percent::1024            1                       # Percentage of cache occupancy per task id
system.l2.tags.tag_accesses                  13310330                       # Number of tag accesses
system.l2.tags.data_accesses                 13310330                       # Number of data accesses
system.l2.pwrStateResidencyTicks::UNDEFINED 1094655127000                       # Cumulative time (in ticks) in various power states
system.l2.WritebackDirty_hits::writebacks       657961                       # number of WritebackDirty hits
system.l2.WritebackDirty_hits::total           657961                       # number of WritebackDirty hits
system.l2.WritebackClean_hits::writebacks          305                       # number of WritebackClean hits
system.l2.WritebackClean_hits::total              305                       # number of WritebackClean hits
system.l2.UpgradeReq_hits::cpu.data            230229                       # number of UpgradeReq hits
system.l2.UpgradeReq_hits::total               230229                       # number of UpgradeReq hits
system.l2.ReadExReq_hits::cpu.data               3028                       # number of ReadExReq hits
system.l2.ReadExReq_hits::total                  3028                       # number of ReadExReq hits
system.l2.ReadCleanReq_hits::cpu.inst              16                       # number of ReadCleanReq hits
system.l2.ReadCleanReq_hits::total                 16                       # number of ReadCleanReq hits
system.l2.ReadSharedReq_hits::cpu.data         161154                       # number of ReadSharedReq hits
system.l2.ReadSharedReq_hits::total            161154                       # number of ReadSharedReq hits
system.l2.demand_hits::cpu.inst                    16                       # number of demand (read+write) hits
system.l2.demand_hits::cpu.data                164182                       # number of demand (read+write) hits
system.l2.demand_hits::total                   164198                       # number of demand (read+write) hits
system.l2.overall_hits::cpu.inst                   16                       # number of overall hits
system.l2.overall_hits::cpu.data               164182                       # number of overall hits
system.l2.overall_hits::total                  164198                       # number of overall hits
system.l2.ReadExReq_misses::cpu.data            63801                       # number of ReadExReq misses
system.l2.ReadExReq_misses::total               63801                       # number of ReadExReq misses
system.l2.ReadCleanReq_misses::cpu.inst           739                       # number of ReadCleanReq misses
system.l2.ReadCleanReq_misses::total              739                       # number of ReadCleanReq misses
system.l2.ReadSharedReq_misses::cpu.data       455976                       # number of ReadSharedReq misses
system.l2.ReadSharedReq_misses::total          455976                       # number of ReadSharedReq misses
system.l2.demand_misses::cpu.inst                 739                       # number of demand (read+write) misses
system.l2.demand_misses::cpu.data              519777                       # number of demand (read+write) misses
system.l2.demand_misses::total                 520516                       # number of demand (read+write) misses
system.l2.overall_misses::cpu.inst                739                       # number of overall misses
system.l2.overall_misses::cpu.data             519777                       # number of overall misses
system.l2.overall_misses::total                520516                       # number of overall misses
system.l2.ReadExReq_miss_latency::cpu.data  20425811000                       # number of ReadExReq miss cycles
system.l2.ReadExReq_miss_latency::total   20425811000                       # number of ReadExReq miss cycles
system.l2.ReadCleanReq_miss_latency::cpu.inst    116038500                       # number of ReadCleanReq miss cycles
system.l2.ReadCleanReq_miss_latency::total    116038500                       # number of ReadCleanReq miss cycles
system.l2.ReadSharedReq_miss_latency::cpu.data  94372893000                       # number of ReadSharedReq miss cycles
system.l2.ReadSharedReq_miss_latency::total  94372893000                       # number of ReadSharedReq miss cycles
system.l2.demand_miss_latency::cpu.inst     116038500                       # number of demand (read+write) miss cycles
system.l2.demand_miss_latency::cpu.data  114798704000                       # number of demand (read+write) miss cycles
system.l2.demand_miss_latency::total     114914742500                       # number of demand (read+write) miss cycles
system.l2.overall_miss_latency::cpu.inst    116038500                       # number of overall miss cycles
system.l2.overall_miss_latency::cpu.data 114798704000                       # number of overall miss cycles
system.l2.overall_miss_latency::total    114914742500                       # number of overall miss cycles
system.l2.WritebackDirty_accesses::writebacks       657961                       # number of WritebackDirty accesses(hits+misses)
system.l2.WritebackDirty_accesses::total       657961                       # number of WritebackDirty accesses(hits+misses)
system.l2.WritebackClean_accesses::writebacks          305                       # number of WritebackClean accesses(hits+misses)
system.l2.WritebackClean_accesses::total          305                       # number of WritebackClean accesses(hits+misses)
system.l2.UpgradeReq_accesses::cpu.data        230229                       # number of UpgradeReq accesses(hits+misses)
system.l2.UpgradeReq_accesses::total           230229                       # number of UpgradeReq accesses(hits+misses)
system.l2.ReadExReq_accesses::cpu.data          66829                       # number of ReadExReq accesses(hits+misses)
system.l2.ReadExReq_accesses::total             66829                       # number of ReadExReq accesses(hits+misses)
system.l2.ReadCleanReq_accesses::cpu.inst          755                       # number of ReadCleanReq accesses(hits+misses)
system.l2.ReadCleanReq_accesses::total            755                       # number of ReadCleanReq accesses(hits+misses)
system.l2.ReadSharedReq_accesses::cpu.data       617130                       # number of ReadSharedReq accesses(hits+misses)
system.l2.ReadSharedReq_accesses::total        617130                       # number of ReadSharedReq accesses(hits+misses)
system.l2.demand_accesses::cpu.inst               755                       # number of demand (read+write) accesses
system.l2.demand_accesses::cpu.data            683959                       # number of demand (read+write) accesses
system.l2.demand_accesses::total               684714                       # number of demand (read+write) accesses
system.l2.overall_accesses::cpu.inst              755                       # number of overall (read+write) accesses
system.l2.overall_accesses::cpu.data           683959                       # number of overall (read+write) accesses
system.l2.overall_accesses::total              684714                       # number of overall (read+write) accesses
system.l2.ReadExReq_miss_rate::cpu.data      0.954690                       # miss rate for ReadExReq accesses
system.l2.ReadExReq_miss_rate::total         0.954690                       # miss rate for ReadExReq accesses
system.l2.ReadCleanReq_miss_rate::cpu.inst     0.978808                       # miss rate for ReadCleanReq accesses
system.l2.ReadCleanReq_miss_rate::total      0.978808                       # miss rate for ReadCleanReq accesses
system.l2.ReadSharedReq_miss_rate::cpu.data     0.738865                       # miss rate for ReadSharedReq accesses
system.l2.ReadSharedReq_miss_rate::total     0.738865                       # miss rate for ReadSharedReq accesses
system.l2.demand_miss_rate::cpu.inst         0.978808                       # miss rate for demand accesses
system.l2.demand_miss_rate::cpu.data         0.759953                       # miss rate for demand accesses
system.l2.demand_miss_rate::total            0.760195                       # miss rate for demand accesses
system.l2.overall_miss_rate::cpu.inst        0.978808                       # miss rate for overall accesses
system.l2.overall_miss_rate::cpu.data        0.759953                       # miss rate for overall accesses
system.l2.overall_miss_rate::total           0.760195                       # miss rate for overall accesses
system.l2.ReadExReq_avg_miss_latency::cpu.data 320148.759424                       # average ReadExReq miss latency
system.l2.ReadExReq_avg_miss_latency::total 320148.759424                       # average ReadExReq miss latency
system.l2.ReadCleanReq_avg_miss_latency::cpu.inst 157020.974290                       # average ReadCleanReq miss latency
system.l2.ReadCleanReq_avg_miss_latency::total 157020.974290                       # average ReadCleanReq miss latency
system.l2.ReadSharedReq_avg_miss_latency::cpu.data 206968.991789                       # average ReadSharedReq miss latency
system.l2.ReadSharedReq_avg_miss_latency::total 206968.991789                       # average ReadSharedReq miss latency
system.l2.demand_avg_miss_latency::cpu.inst 157020.974290                       # average overall miss latency
system.l2.demand_avg_miss_latency::cpu.data 220861.454047                       # average overall miss latency
system.l2.demand_avg_miss_latency::total 220770.816843                       # average overall miss latency
system.l2.overall_avg_miss_latency::cpu.inst 157020.974290                       # average overall miss latency
system.l2.overall_avg_miss_latency::cpu.data 220861.454047                       # average overall miss latency
system.l2.overall_avg_miss_latency::total 220770.816843                       # average overall miss latency
system.l2.blocked_cycles::no_mshrs                  0                       # number of cycles access was blocked
system.l2.blocked_cycles::no_targets                0                       # number of cycles access was blocked
system.l2.blocked::no_mshrs                         0                       # number of cycles access was blocked
system.l2.blocked::no_targets                       0                       # number of cycles access was blocked
system.l2.avg_blocked_cycles::no_mshrs            nan                       # average number of cycles each access was blocked
system.l2.avg_blocked_cycles::no_targets          nan                       # average number of cycles each access was blocked
system.l2.writebacks::writebacks               508945                       # number of writebacks
system.l2.writebacks::total                    508945                       # number of writebacks
system.l2.CleanEvict_mshr_misses::writebacks           28                       # number of CleanEvict MSHR misses
system.l2.CleanEvict_mshr_misses::total            28                       # number of CleanEvict MSHR misses
system.l2.ReadExReq_mshr_misses::cpu.data        63801                       # number of ReadExReq MSHR misses
system.l2.ReadExReq_mshr_misses::total          63801                       # number of ReadExReq MSHR misses
system.l2.ReadCleanReq_mshr_misses::cpu.inst          739                       # number of ReadCleanReq MSHR misses
system.l2.ReadCleanReq_mshr_misses::total          739                       # number of ReadCleanReq MSHR misses
system.l2.ReadSharedReq_mshr_misses::cpu.data       455976                       # number of ReadSharedReq MSHR misses
system.l2.ReadSharedReq_mshr_misses::total       455976                       # number of ReadSharedReq MSHR misses
system.l2.demand_mshr_misses::cpu.inst            739                       # number of demand (read+write) MSHR misses
system.l2.demand_mshr_misses::cpu.data         519777                       # number of demand (read+write) MSHR misses
system.l2.demand_mshr_misses::total            520516                       # number of demand (read+write) MSHR misses
system.l2.overall_mshr_misses::cpu.inst           739                       # number of overall MSHR misses
system.l2.overall_mshr_misses::cpu.data        519777                       # number of overall MSHR misses
system.l2.overall_mshr_misses::total           520516                       # number of overall MSHR misses
system.l2.ReadExReq_mshr_miss_latency::cpu.data  19787801000                       # number of ReadExReq MSHR miss cycles
system.l2.ReadExReq_mshr_miss_latency::total  19787801000                       # number of ReadExReq MSHR miss cycles
system.l2.ReadCleanReq_mshr_miss_latency::cpu.inst    108648500                       # number of ReadCleanReq MSHR miss cycles
system.l2.ReadCleanReq_mshr_miss_latency::total    108648500                       # number of ReadCleanReq MSHR miss cycles
system.l2.ReadSharedReq_mshr_miss_latency::cpu.data  89813133000                       # number of ReadSharedReq MSHR miss cycles
system.l2.ReadSharedReq_mshr_miss_latency::total  89813133000                       # number of ReadSharedReq MSHR miss cycles
system.l2.demand_mshr_miss_latency::cpu.inst    108648500                       # number of demand (read+write) MSHR miss cycles
system.l2.demand_mshr_miss_latency::cpu.data 109600934000                       # number of demand (read+write) MSHR miss cycles
system.l2.demand_mshr_miss_latency::total 109709582500                       # number of demand (read+write) MSHR miss cycles
system.l2.overall_mshr_miss_latency::cpu.inst    108648500                       # number of overall MSHR miss cycles
system.l2.overall_mshr_miss_latency::cpu.data 109600934000                       # number of overall MSHR miss cycles
system.l2.overall_mshr_miss_latency::total 109709582500                       # number of overall MSHR miss cycles
system.l2.CleanEvict_mshr_miss_rate::writebacks          inf                       # mshr miss rate for CleanEvict accesses
system.l2.CleanEvict_mshr_miss_rate::total          inf                       # mshr miss rate for CleanEvict accesses
system.l2.ReadExReq_mshr_miss_rate::cpu.data     0.954690                       # mshr miss rate for ReadExReq accesses
system.l2.ReadExReq_mshr_miss_rate::total     0.954690                       # mshr miss rate for ReadExReq accesses
system.l2.ReadCleanReq_mshr_miss_rate::cpu.inst     0.978808                       # mshr miss rate for ReadCleanReq accesses
system.l2.ReadCleanReq_mshr_miss_rate::total     0.978808                       # mshr miss rate for ReadCleanReq accesses
system.l2.ReadSharedReq_mshr_miss_rate::cpu.data     0.738865                       # mshr miss rate for ReadSharedReq accesses
system.l2.ReadSharedReq_mshr_miss_rate::total     0.738865                       # mshr miss rate for ReadSharedReq accesses
system.l2.demand_mshr_miss_rate::cpu.inst     0.978808                       # mshr miss rate for demand accesses
system.l2.demand_mshr_miss_rate::cpu.data     0.759953                       # mshr miss rate for demand accesses
system.l2.demand_mshr_miss_rate::total       0.760195                       # mshr miss rate for demand accesses
system.l2.overall_mshr_miss_rate::cpu.inst     0.978808                       # mshr miss rate for overall accesses
system.l2.overall_mshr_miss_rate::cpu.data     0.759953                       # mshr miss rate for overall accesses
system.l2.overall_mshr_miss_rate::total      0.760195                       # mshr miss rate for overall accesses
system.l2.ReadExReq_avg_mshr_miss_latency::cpu.data 310148.759424                       # average ReadExReq mshr miss latency
system.l2.ReadExReq_avg_mshr_miss_latency::total 310148.759424                       # average ReadExReq mshr miss latency
system.l2.ReadCleanReq_avg_mshr_miss_latency::cpu.inst 147020.974290                       # average ReadCleanReq mshr miss latency
system.l2.ReadCleanReq_avg_mshr_miss_latency::total 147020.974290                       # average ReadCleanReq mshr miss latency
system.l2.ReadSharedReq_avg_mshr_miss_latency::cpu.data 196968.991789                       # average ReadSharedReq mshr miss latency
system.l2.ReadSharedReq_avg_mshr_miss_latency::total 196968.991789                       # average ReadSharedReq mshr miss latency
system.l2.demand_avg_mshr_miss_latency::cpu.inst 147020.974290                       # average overall mshr miss latency
system.l2.demand_avg_mshr_miss_latency::cpu.data 210861.454047                       # average overall mshr miss latency
system.l2.demand_avg_mshr_miss_latency::total 210770.816843                       # average overall mshr miss latency
system.l2.overall_avg_mshr_miss_latency::cpu.inst 147020.974290                       # average overall mshr miss latency
system.l2.overall_avg_mshr_miss_latency::cpu.data 210861.454047                       # average overall mshr miss latency
system.l2.overall_avg_mshr_miss_latency::total 210770.816843                       # average overall mshr miss latency
system.l2.replacements                         518730                       # number of replacements
system.l3.tags.pwrStateResidencyTicks::UNDEFINED 1094655127000                       # Cumulative time (in ticks) in various power states
system.l3.tags.tagsinuse                 16167.908974                       # Cycle average of tags in use
system.l3.tags.total_refs                     1038283                       # Total number of references to valid blocks.
system.l3.tags.sampled_refs                    286863                       # Sample count of references to valid blocks.
system.l3.tags.avg_refs                      3.619439                       # Average number of references to valid blocks.
system.l3.tags.warmup_cycle                    418000                       # Cycle when the warmup percentage was hit.
system.l3.tags.occ_blocks::writebacks      482.402010                       # Average occupied blocks per requestor
system.l3.tags.occ_blocks::cpu.inst          7.172273                       # Average occupied blocks per requestor
system.l3.tags.occ_blocks::cpu.data      15678.334692                       # Average occupied blocks per requestor
system.l3.tags.occ_percent::writebacks       0.029443                       # Average percentage of cache occupancy
system.l3.tags.occ_percent::cpu.inst         0.000438                       # Average percentage of cache occupancy
system.l3.tags.occ_percent::cpu.data         0.956930                       # Average percentage of cache occupancy
system.l3.tags.occ_percent::total            0.986811                       # Average percentage of cache occupancy
system.l3.tags.occ_task_id_blocks::1024         16384                       # Occupied blocks per task id
system.l3.tags.age_task_id_blocks_1024::0           29                       # Occupied blocks per task id
system.l3.tags.age_task_id_blocks_1024::1           88                       # Occupied blocks per task id
system.l3.tags.age_task_id_blocks_1024::4        16267                       # Occupied blocks per task id
system.l3.tags.occ_task_id_percent::1024            1                       # Percentage of cache occupancy per task id
system.l3.tags.tag_accesses                   1325457                       # Number of tag accesses
system.l3.tags.data_accesses                  1325457                       # Number of data accesses
system.l3.pwrStateResidencyTicks::UNDEFINED 1094655127000                       # Cumulative time (in ticks) in various power states
system.l3.WritebackDirty_hits::writebacks       508945                       # number of WritebackDirty hits
system.l3.WritebackDirty_hits::total           508945                       # number of WritebackDirty hits
system.l3.ReadExReq_hits::cpu.data                634                       # number of ReadExReq hits
system.l3.ReadExReq_hits::total                   634                       # number of ReadExReq hits
system.l3.ReadSharedReq_hits::cpu.inst              3                       # number of ReadSharedReq hits
system.l3.ReadSharedReq_hits::cpu.data         248644                       # number of ReadSharedReq hits
system.l3.ReadSharedReq_hits::total            248647                       # number of ReadSharedReq hits
system.l3.demand_hits::cpu.inst                     3                       # number of demand (read+write) hits
system.l3.demand_hits::cpu.data                249278                       # number of demand (read+write) hits
system.l3.demand_hits::total                   249281                       # number of demand (read+write) hits
system.l3.overall_hits::cpu.inst                    3                       # number of overall hits
system.l3.overall_hits::cpu.data               249278                       # number of overall hits
system.l3.overall_hits::total                  249281                       # number of overall hits
system.l3.ReadExReq_misses::cpu.data            63167                       # number of ReadExReq misses
system.l3.ReadExReq_misses::total               63167                       # number of ReadExReq misses
system.l3.ReadSharedReq_misses::cpu.inst          736                       # number of ReadSharedReq misses
system.l3.ReadSharedReq_misses::cpu.data       207332                       # number of ReadSharedReq misses
system.l3.ReadSharedReq_misses::total          208068                       # number of ReadSharedReq misses
system.l3.demand_misses::cpu.inst                 736                       # number of demand (read+write) misses
system.l3.demand_misses::cpu.data              270499                       # number of demand (read+write) misses
system.l3.demand_misses::total                 271235                       # number of demand (read+write) misses
system.l3.overall_misses::cpu.inst                736                       # number of overall misses
system.l3.overall_misses::cpu.data             270499                       # number of overall misses
system.l3.overall_misses::total                271235                       # number of overall misses
system.l3.ReadExReq_miss_latency::cpu.data  19079333000                       # number of ReadExReq miss cycles
system.l3.ReadExReq_miss_latency::total   19079333000                       # number of ReadExReq miss cycles
system.l3.ReadSharedReq_miss_latency::cpu.inst    100488000                       # number of ReadSharedReq miss cycles
system.l3.ReadSharedReq_miss_latency::cpu.data  82179127497                       # number of ReadSharedReq miss cycles
system.l3.ReadSharedReq_miss_latency::total  82279615497                       # number of ReadSharedReq miss cycles
system.l3.demand_miss_latency::cpu.inst     100488000                       # number of demand (read+write) miss cycles
system.l3.demand_miss_latency::cpu.data  101258460497                       # number of demand (read+write) miss cycles
system.l3.demand_miss_latency::total     101358948497                       # number of demand (read+write) miss cycles
system.l3.overall_miss_latency::cpu.inst    100488000                       # number of overall miss cycles
system.l3.overall_miss_latency::cpu.data 101258460497                       # number of overall miss cycles
system.l3.overall_miss_latency::total    101358948497                       # number of overall miss cycles
system.l3.WritebackDirty_accesses::writebacks       508945                       # number of WritebackDirty accesses(hits+misses)
system.l3.WritebackDirty_accesses::total       508945                       # number of WritebackDirty accesses(hits+misses)
system.l3.ReadExReq_accesses::cpu.data          63801                       # number of ReadExReq accesses(hits+misses)
system.l3.ReadExReq_accesses::total             63801                       # number of ReadExReq accesses(hits+misses)
system.l3.ReadSharedReq_accesses::cpu.inst          739                       # number of ReadSharedReq accesses(hits+misses)
system.l3.ReadSharedReq_accesses::cpu.data       455976                       # number of ReadSharedReq accesses(hits+misses)
system.l3.ReadSharedReq_accesses::total        456715                       # number of ReadSharedReq accesses(hits+misses)
system.l3.demand_accesses::cpu.inst               739                       # number of demand (read+write) accesses
system.l3.demand_accesses::cpu.data            519777                       # number of demand (read+write) accesses
system.l3.demand_accesses::total               520516                       # number of demand (read+write) accesses
system.l3.overall_accesses::cpu.inst              739                       # number of overall (read+write) accesses
system.l3.overall_accesses::cpu.data           519777                       # number of overall (read+write) accesses
system.l3.overall_accesses::total              520516                       # number of overall (read+write) accesses
system.l3.ReadExReq_miss_rate::cpu.data      0.990063                       # miss rate for ReadExReq accesses
system.l3.ReadExReq_miss_rate::total         0.990063                       # miss rate for ReadExReq accesses
system.l3.ReadSharedReq_miss_rate::cpu.inst     0.995940                       # miss rate for ReadSharedReq accesses
system.l3.ReadSharedReq_miss_rate::cpu.data     0.454699                       # miss rate for ReadSharedReq accesses
system.l3.ReadSharedReq_miss_rate::total     0.455575                       # miss rate for ReadSharedReq accesses
system.l3.demand_miss_rate::cpu.inst         0.995940                       # miss rate for demand accesses
system.l3.demand_miss_rate::cpu.data         0.520414                       # miss rate for demand accesses
system.l3.demand_miss_rate::total            0.521089                       # miss rate for demand accesses
system.l3.overall_miss_rate::cpu.inst        0.995940                       # miss rate for overall accesses
system.l3.overall_miss_rate::cpu.data        0.520414                       # miss rate for overall accesses
system.l3.overall_miss_rate::total           0.521089                       # miss rate for overall accesses
system.l3.ReadExReq_avg_miss_latency::cpu.data 302045.894217                       # average ReadExReq miss latency
system.l3.ReadExReq_avg_miss_latency::total 302045.894217                       # average ReadExReq miss latency
system.l3.ReadSharedReq_avg_miss_latency::cpu.inst 136532.608696                       # average ReadSharedReq miss latency
system.l3.ReadSharedReq_avg_miss_latency::cpu.data 396364.900242                       # average ReadSharedReq miss latency
system.l3.ReadSharedReq_avg_miss_latency::total 395445.794149                       # average ReadSharedReq miss latency
system.l3.demand_avg_miss_latency::cpu.inst 136532.608696                       # average overall miss latency
system.l3.demand_avg_miss_latency::cpu.data 374339.500320                       # average overall miss latency
system.l3.demand_avg_miss_latency::total 373694.207964                       # average overall miss latency
system.l3.overall_avg_miss_latency::cpu.inst 136532.608696                       # average overall miss latency
system.l3.overall_avg_miss_latency::cpu.data 374339.500320                       # average overall miss latency
system.l3.overall_avg_miss_latency::total 373694.207964                       # average overall miss latency
system.l3.blocked_cycles::no_mshrs                  0                       # number of cycles access was blocked
system.l3.blocked_cycles::no_targets                0                       # number of cycles access was blocked
system.l3.blocked::no_mshrs                         0                       # number of cycles access was blocked
system.l3.blocked::no_targets                       0                       # number of cycles access was blocked
system.l3.avg_blocked_cycles::no_mshrs            nan                       # average number of cycles each access was blocked
system.l3.avg_blocked_cycles::no_targets          nan                       # average number of cycles each access was blocked
system.l3.writebacks::writebacks               247279                       # number of writebacks
system.l3.writebacks::total                    247279                       # number of writebacks
system.l3.CleanEvict_mshr_misses::writebacks          311                       # number of CleanEvict MSHR misses
system.l3.CleanEvict_mshr_misses::total           311                       # number of CleanEvict MSHR misses
system.l3.ReadExReq_mshr_misses::cpu.data        63167                       # number of ReadExReq MSHR misses
system.l3.ReadExReq_mshr_misses::total          63167                       # number of ReadExReq MSHR misses
system.l3.ReadSharedReq_mshr_misses::cpu.inst          736                       # number of ReadSharedReq MSHR misses
system.l3.ReadSharedReq_mshr_misses::cpu.data       207332                       # number of ReadSharedReq MSHR misses
system.l3.ReadSharedReq_mshr_misses::total       208068                       # number of ReadSharedReq MSHR misses
system.l3.demand_mshr_misses::cpu.inst            736                       # number of demand (read+write) MSHR misses
system.l3.demand_mshr_misses::cpu.data         270499                       # number of demand (read+write) MSHR misses
system.l3.demand_mshr_misses::total            271235                       # number of demand (read+write) MSHR misses
system.l3.overall_mshr_misses::cpu.inst           736                       # number of overall MSHR misses
system.l3.overall_mshr_misses::cpu.data        270499                       # number of overall MSHR misses
system.l3.overall_mshr_misses::total           271235                       # number of overall MSHR misses
system.l3.ReadExReq_mshr_miss_latency::cpu.data  18447663000                       # number of ReadExReq MSHR miss cycles
system.l3.ReadExReq_mshr_miss_latency::total  18447663000                       # number of ReadExReq MSHR miss cycles
system.l3.ReadSharedReq_mshr_miss_latency::cpu.inst     93128000                       # number of ReadSharedReq MSHR miss cycles
system.l3.ReadSharedReq_mshr_miss_latency::cpu.data  80105807497                       # number of ReadSharedReq MSHR miss cycles
system.l3.ReadSharedReq_mshr_miss_latency::total  80198935497                       # number of ReadSharedReq MSHR miss cycles
system.l3.demand_mshr_miss_latency::cpu.inst     93128000                       # number of demand (read+write) MSHR miss cycles
system.l3.demand_mshr_miss_latency::cpu.data  98553470497                       # number of demand (read+write) MSHR miss cycles
system.l3.demand_mshr_miss_latency::total  98646598497                       # number of demand (read+write) MSHR miss cycles
system.l3.overall_mshr_miss_latency::cpu.inst     93128000                       # number of overall MSHR miss cycles
system.l3.overall_mshr_miss_latency::cpu.data  98553470497                       # number of overall MSHR miss cycles
system.l3.overall_mshr_miss_latency::total  98646598497                       # number of overall MSHR miss cycles
system.l3.CleanEvict_mshr_miss_rate::writebacks          inf                       # mshr miss rate for CleanEvict accesses
system.l3.CleanEvict_mshr_miss_rate::total          inf                       # mshr miss rate for CleanEvict accesses
system.l3.ReadExReq_mshr_miss_rate::cpu.data     0.990063                       # mshr miss rate for ReadExReq accesses
system.l3.ReadExReq_mshr_miss_rate::total     0.990063                       # mshr miss rate for ReadExReq accesses
system.l3.ReadSharedReq_mshr_miss_rate::cpu.inst     0.995940                       # mshr miss rate for ReadSharedReq accesses
system.l3.ReadSharedReq_mshr_miss_rate::cpu.data     0.454699                       # mshr miss rate for ReadSharedReq accesses
system.l3.ReadSharedReq_mshr_miss_rate::total     0.455575                       # mshr miss rate for ReadSharedReq accesses
system.l3.demand_mshr_miss_rate::cpu.inst     0.995940                       # mshr miss rate for demand accesses
system.l3.demand_mshr_miss_rate::cpu.data     0.520414                       # mshr miss rate for demand accesses
system.l3.demand_mshr_miss_rate::total       0.521089                       # mshr miss rate for demand accesses
system.l3.overall_mshr_miss_rate::cpu.inst     0.995940                       # mshr miss rate for overall accesses
system.l3.overall_mshr_miss_rate::cpu.data     0.520414                       # mshr miss rate for overall accesses
system.l3.overall_mshr_miss_rate::total      0.521089                       # mshr miss rate for overall accesses
system.l3.ReadExReq_avg_mshr_miss_latency::cpu.data 292045.894217                       # average ReadExReq mshr miss latency
system.l3.ReadExReq_avg_mshr_miss_latency::total 292045.894217                       # average ReadExReq mshr miss latency
system.l3.ReadSharedReq_avg_mshr_miss_latency::cpu.inst 126532.608696                       # average ReadSharedReq mshr miss latency
system.l3.ReadSharedReq_avg_mshr_miss_latency::cpu.data 386364.900242                       # average ReadSharedReq mshr miss latency
system.l3.ReadSharedReq_avg_mshr_miss_latency::total 385445.794149                       # average ReadSharedReq mshr miss latency
system.l3.demand_avg_mshr_miss_latency::cpu.inst 126532.608696                       # average overall mshr miss latency
system.l3.demand_avg_mshr_miss_latency::cpu.data 364339.500320                       # average overall mshr miss latency
system.l3.demand_avg_mshr_miss_latency::total 363694.207964                       # average overall mshr miss latency
system.l3.overall_avg_mshr_miss_latency::cpu.inst 126532.608696                       # average overall mshr miss latency
system.l3.overall_avg_mshr_miss_latency::cpu.data 364339.500320                       # average overall mshr miss latency
system.l3.overall_avg_mshr_miss_latency::total 363694.207964                       # average overall mshr miss latency
system.l3.replacements                         270479                       # number of replacements
system.membus.snoop_filter.tot_requests        530374                       # Total number of requests made to the snoop filter.
system.membus.snoop_filter.hit_single_requests       259139                       # Number of requests hitting in the snoop filter with a single holder of the requested data.
system.membus.snoop_filter.hit_multi_requests            0                       # Number of requests hitting in the snoop filter with multiple (>1) holders of the requested data.
system.membus.snoop_filter.tot_snoops               0                       # Total number of snoops made to the snoop filter.
system.membus.snoop_filter.hit_single_snoops            0                       # Number of snoops hitting in the snoop filter with a single holder of the requested data.
system.membus.snoop_filter.hit_multi_snoops            0                       # Number of snoops hitting in the snoop filter with multiple (>1) holders of the requested data.
system.membus.pwrStateResidencyTicks::UNDEFINED 1094655127000                       # Cumulative time (in ticks) in various power states
system.membus.trans_dist::ReadResp             208068                       # Transaction distribution
system.membus.trans_dist::WritebackDirty       247279                       # Transaction distribution
system.membus.trans_dist::CleanEvict             7122                       # Transaction distribution
system.membus.trans_dist::ReadExReq             63167                       # Transaction distribution
system.membus.trans_dist::ReadExResp            63167                       # Transaction distribution
system.membus.trans_dist::ReadSharedReq        208068                       # Transaction distribution
system.membus.pkt_count_system.l3.mem_side::system.mem_ctrls.port       796871                       # Packet count per connected master and slave (bytes)
system.membus.pkt_count_system.l3.mem_side::total       796871                       # Packet count per connected master and slave (bytes)
system.membus.pkt_count::total                 796871                       # Packet count per connected master and slave (bytes)
system.membus.pkt_size_system.l3.mem_side::system.mem_ctrls.port     33184896                       # Cumulative packet size per connected master and slave (bytes)
system.membus.pkt_size_system.l3.mem_side::total     33184896                       # Cumulative packet size per connected master and slave (bytes)
system.membus.pkt_size::total                33184896                       # Cumulative packet size per connected master and slave (bytes)
system.membus.snoops                                0                       # Total snoops (count)
system.membus.snoopTraffic                          0                       # Total snoop traffic (bytes)
system.membus.snoop_fanout::samples            271235                       # Request fanout histogram
system.membus.snoop_fanout::mean                    0                       # Request fanout histogram
system.membus.snoop_fanout::stdev                   0                       # Request fanout histogram
system.membus.snoop_fanout::underflows              0      0.00%      0.00% # Request fanout histogram
system.membus.snoop_fanout::0                  271235    100.00%    100.00% # Request fanout histogram
system.membus.snoop_fanout::1                       0      0.00%    100.00% # Request fanout histogram
system.membus.snoop_fanout::overflows               0      0.00%    100.00% # Request fanout histogram
system.membus.snoop_fanout::min_value               0                       # Request fanout histogram
system.membus.snoop_fanout::max_value               0                       # Request fanout histogram
system.membus.snoop_fanout::total              271235                       # Request fanout histogram
system.membus.reqLayer2.occupancy          1519505000                       # Layer occupancy (ticks)
system.membus.reqLayer2.utilization               0.1                       # Layer utilization (%)
system.membus.respLayer1.occupancy         1356190000                       # Layer occupancy (ticks)
system.membus.respLayer1.utilization              0.1                       # Layer utilization (%)
system.tol2bus.snoop_filter.tot_requests      1598695                       # Total number of requests made to the snoop filter.
system.tol2bus.snoop_filter.hit_single_requests       913981                       # Number of requests hitting in the snoop filter with a single holder of the requested data.
system.tol2bus.snoop_filter.hit_multi_requests            1                       # Number of requests hitting in the snoop filter with multiple (>1) holders of the requested data.
system.tol2bus.snoop_filter.tot_snoops           5811                       # Total number of snoops made to the snoop filter.
system.tol2bus.snoop_filter.hit_single_snoops         5811                       # Number of snoops hitting in the snoop filter with a single holder of the requested data.
system.tol2bus.snoop_filter.hit_multi_snoops            0                       # Number of snoops hitting in the snoop filter with multiple (>1) holders of the requested data.
system.tol2bus.pwrStateResidencyTicks::UNDEFINED 1094655127000                       # Cumulative time (in ticks) in various power states
system.tol2bus.trans_dist::ReadResp            617885                       # Transaction distribution
system.tol2bus.trans_dist::WritebackDirty      1166906                       # Transaction distribution
system.tol2bus.trans_dist::WritebackClean          305                       # Transaction distribution
system.tol2bus.trans_dist::CleanEvict           51660                       # Transaction distribution
system.tol2bus.trans_dist::UpgradeReq          230229                       # Transaction distribution
system.tol2bus.trans_dist::UpgradeResp         230229                       # Transaction distribution
system.tol2bus.trans_dist::ReadExReq            66829                       # Transaction distribution
system.tol2bus.trans_dist::ReadExResp           66829                       # Transaction distribution
system.tol2bus.trans_dist::ReadCleanReq           755                       # Transaction distribution
system.tol2bus.trans_dist::ReadSharedReq       617130                       # Transaction distribution
system.tol2bus.pkt_count_system.cpu.icache.mem_side::system.l2.cpu_side         1815                       # Packet count per connected master and slave (bytes)
system.tol2bus.pkt_count_system.cpu.dcache.mem_side::system.l2.cpu_side      2511823                       # Packet count per connected master and slave (bytes)
system.tol2bus.pkt_count::total               2513638                       # Packet count per connected master and slave (bytes)
system.tol2bus.pkt_size_system.cpu.icache.mem_side::system.l2.cpu_side        67840                       # Cumulative packet size per connected master and slave (bytes)
system.tol2bus.pkt_size_system.cpu.dcache.mem_side::system.l2.cpu_side     85882880                       # Cumulative packet size per connected master and slave (bytes)
system.tol2bus.pkt_size::total               85950720                       # Cumulative packet size per connected master and slave (bytes)
system.tol2bus.snoops                          535119                       # Total snoops (count)
system.tol2bus.snoopTraffic                  32572480                       # Total snoop traffic (bytes)
system.tol2bus.snoop_fanout::samples          1450062                       # Request fanout histogram
system.tol2bus.snoop_fanout::mean            0.004008                       # Request fanout histogram
system.tol2bus.snoop_fanout::stdev           0.063183                       # Request fanout histogram
system.tol2bus.snoop_fanout::underflows             0      0.00%      0.00% # Request fanout histogram
system.tol2bus.snoop_fanout::0                1444250     99.60%     99.60% # Request fanout histogram
system.tol2bus.snoop_fanout::1                   5812      0.40%    100.00% # Request fanout histogram
system.tol2bus.snoop_fanout::2                      0      0.00%    100.00% # Request fanout histogram
system.tol2bus.snoop_fanout::3                      0      0.00%    100.00% # Request fanout histogram
system.tol2bus.snoop_fanout::4                      0      0.00%    100.00% # Request fanout histogram
system.tol2bus.snoop_fanout::overflows              0      0.00%    100.00% # Request fanout histogram
system.tol2bus.snoop_fanout::min_value              0                       # Request fanout histogram
system.tol2bus.snoop_fanout::max_value              1                       # Request fanout histogram
system.tol2bus.snoop_fanout::total            1450062                       # Request fanout histogram
system.tol2bus.reqLayer0.occupancy         1457613500                       # Layer occupancy (ticks)
system.tol2bus.reqLayer0.utilization              0.1                       # Layer utilization (%)
system.tol2bus.respLayer0.occupancy           1132500                       # Layer occupancy (ticks)
system.tol2bus.respLayer0.utilization             0.0                       # Layer utilization (%)
system.tol2bus.respLayer1.occupancy        1141053000                       # Layer occupancy (ticks)
system.tol2bus.respLayer1.utilization             0.1                       # Layer utilization (%)
system.tol3bus.snoop_filter.tot_requests      1038597                       # Total number of requests made to the snoop filter.
system.tol3bus.snoop_filter.hit_single_requests       518078                       # Number of requests hitting in the snoop filter with a single holder of the requested data.
system.tol3bus.snoop_filter.hit_multi_requests            0                       # Number of requests hitting in the snoop filter with multiple (>1) holders of the requested data.
system.tol3bus.snoop_filter.tot_snoops          16389                       # Total number of snoops made to the snoop filter.
system.tol3bus.snoop_filter.hit_single_snoops        16389                       # Number of snoops hitting in the snoop filter with a single holder of the requested data.
system.tol3bus.snoop_filter.hit_multi_snoops            0                       # Number of snoops hitting in the snoop filter with multiple (>1) holders of the requested data.
system.tol3bus.pwrStateResidencyTicks::UNDEFINED 1094655127000                       # Cumulative time (in ticks) in various power states
system.tol3bus.trans_dist::ReadResp            456715                       # Transaction distribution
system.tol3bus.trans_dist::WritebackDirty       756224                       # Transaction distribution
system.tol3bus.trans_dist::CleanEvict           32333                       # Transaction distribution
system.tol3bus.trans_dist::ReadExReq            63801                       # Transaction distribution
system.tol3bus.trans_dist::ReadExResp           63801                       # Transaction distribution
system.tol3bus.trans_dist::ReadSharedReq       456715                       # Transaction distribution
system.tol3bus.pkt_count_system.l2.mem_side::system.l3.cpu_side      1559110                       # Packet count per connected master and slave (bytes)
system.tol3bus.pkt_size_system.l2.mem_side::system.l3.cpu_side     65885504                       # Cumulative packet size per connected master and slave (bytes)
system.tol3bus.snoops                          270479                       # Total snoops (count)
system.tol3bus.snoopTraffic                  15825856                       # Total snoop traffic (bytes)
system.tol3bus.snoop_fanout::samples           790998                       # Request fanout histogram
system.tol3bus.snoop_fanout::mean            0.020719                       # Request fanout histogram
system.tol3bus.snoop_fanout::stdev           0.142443                       # Request fanout histogram
system.tol3bus.snoop_fanout::underflows             0      0.00%      0.00% # Request fanout histogram
system.tol3bus.snoop_fanout::0                 774609     97.93%     97.93% # Request fanout histogram
system.tol3bus.snoop_fanout::1                  16389      2.07%    100.00% # Request fanout histogram
system.tol3bus.snoop_fanout::overflows              0      0.00%    100.00% # Request fanout histogram
system.tol3bus.snoop_fanout::min_value              0                       # Request fanout histogram
system.tol3bus.snoop_fanout::max_value              1                       # Request fanout histogram
system.tol3bus.snoop_fanout::total             790998                       # Request fanout histogram
system.tol3bus.reqLayer0.occupancy         1028244997                       # Layer occupancy (ticks)
system.tol3bus.reqLayer0.utilization              0.1                       # Layer utilization (%)
system.tol3bus.respLayer0.occupancy         780774000                       # Layer occupancy (ticks)
system.tol3bus.respLayer0.utilization             0.1                       # Layer utilization (%)

---------- End Simulation Statistics   ----------
